*SPEF "1481-1998"
*DESIGN "shifter"
*DATE "Tue Jun  3 14:30:20 2025"
*VENDOR "Synopsys, Inc."
*PROGRAM "icc2 /home/synopsys_install/icc2/W-2024.09/linux64/nwtn/bin/icc2_exec"
*VERSION "W-2024.09 Aug 25, 2024"
*DESIGN_FLOW "ICC2 SPEF DR"
*DIVIDER /
*DELIMITER :
*BUS_DELIMITER [ ]
*T_UNIT 1 NS
*C_UNIT 1 FF
*R_UNIT 1 OHM
*L_UNIT 1 HENRY

// XY_UNIT 1 UM
// PARASITIC_TECH p2 at 125.000 degree

*NAME_MAP
*1 Clock
*2 Reset
*3 Direction
*4 Shift_Amount[2]
*5 Shift_Amount[1]
*6 Shift_Amount[0]
*7 Data_In[7]
*8 Data_In[6]
*9 Data_In[5]
*10 Data_In[4]
*11 Data_In[3]
*12 Data_In[2]
*13 Data_In[1]
*14 Data_In[0]
*15 Data_Out[7]
*16 Data_Out[6]
*17 Data_Out[5]
*18 Data_Out[4]
*19 Data_Out[3]
*20 Data_Out[2]
*21 Data_Out[1]
*22 Data_Out[0]
*23 VDD
*24 VSS
*25 Data_Out_reg[7]
*26 Data_Out_reg[6]
*27 Data_Out_reg[5]
*28 Data_Out_reg[4]
*29 Data_Out_reg[3]
*30 Data_Out_reg[2]
*31 Data_Out_reg[0]
*32 Data_Out_reg[1]
*33 HFSINV_232_0
*34 HFSINV_350_1
*35 HFSINV_653_2
*36 HFSINV_877_3
*37 HFSINV_1108_4
*38 ctosc_drc_inst_340
*39 ctosc_drc_inst_431
*40 ctmTdsLR_1_432
*41 ctmTdsLR_2_433
*42 ctmTdsLR_1_434
*43 ctmTdsLR_2_435
*44 ctmTdsLR_1_436
*45 ctmTdsLR_2_437
*46 ctmTdsLR_1_438
*47 ctmTdsLR_2_439
*48 U155
*49 U156
*50 U157
*51 U158
*52 U159
*53 U160
*54 U161
*55 U162
*56 U163
*57 U164
*58 U165
*59 U166
*60 U167
*61 U168
*62 U169
*63 U170
*64 U171
*65 U173
*66 U174
*67 U175
*68 U176
*69 U177
*70 U178
*71 U179
*72 U180
*73 U181
*74 U182
*75 U183
*76 U184
*77 U185
*78 U186
*79 U187
*80 U188
*81 U190
*82 U191
*83 U192
*84 U193
*85 U194
*86 U195
*87 U196
*88 U197
*89 U198
*90 U199
*91 U200
*92 U201
*93 U202
*94 U204
*95 U205
*96 U206
*97 U207
*98 U208
*99 U209
*100 U210
*101 U211
*102 U212
*103 U213
*104 U214
*105 U215
*106 U217
*107 U218
*108 U219
*109 U220
*110 U221
*111 U222
*112 U223
*113 U224
*114 U225
*115 U226
*116 U227
*117 U228
*118 U229
*119 U230
*120 U231
*121 U232
*122 U233
*123 U234
*124 U235
*125 U236
*126 U237
*127 U238
*128 U239
*129 U240
*130 U241
*131 U242
*132 U243
*133 U244
*134 U245
*135 U246
*136 U247
*137 HFSNET_0
*138 N21
*139 N22
*140 N23
*141 N24
*142 N25
*143 N26
*144 N27
*145 N28
*146 HFSNET_1
*147 HFSNET_2
*148 HFSNET_3
*149 HFSNET_4
*150 ctosc_drc_0
*151 ctosc_drc_1
*152 tmp_net2
*153 tmp_net3
*154 tmp_net4
*155 tmp_net5
*156 n143
*157 n144
*158 n145
*159 n146
*160 n147
*161 n148
*162 n149
*163 n150
*164 n151
*165 n152
*166 n153
*167 n154
*168 n155
*169 n156
*170 n157
*171 n158
*172 n159
*173 n160
*174 n161
*175 n162
*176 n163
*177 n164
*178 n165
*179 n166
*180 n167
*181 n168
*182 n169
*183 n170
*184 n171
*185 n172
*186 n173
*187 n174
*188 n175
*189 n176
*190 n177
*191 n178
*192 n179
*193 n180
*194 n181
*195 n182
*196 n183
*197 n184
*198 n185
*199 n186
*200 n187
*201 n188
*202 n189
*203 n190
*204 n191
*205 n192
*206 n193
*207 n194
*208 n195
*209 n196
*210 n197
*211 n198
*212 n199
*213 n200
*214 n201
*215 n202
*216 n203
*217 n204
*218 n205
*219 n206
*220 n207
*221 n208
*222 n209
*223 n210
*224 n211
*225 n212
*226 n213
*227 n214
*228 n215
*229 n216
*230 n217
*231 n218
*232 n219
*233 n220
*234 n221
*235 n222
*236 n223
*237 n224
*238 n225
*239 n226
*240 n227

*PORTS

*1 I *C 21.608 0.143
*2 I *C 21.000 0.143
*3 I *C 34.680 0.143
*4 I *C 34.224 0.143
*5 I *C 34.984 0.143
*6 I *C 34.832 0.143
*7 I *C 35.440 0.143
*8 I *C 29.816 0.143
*9 I *C 19.936 0.143
*10 I *C 20.696 0.143
*11 I *C 26.320 0.143
*12 I *C 19.176 0.143
*13 I *C 17.808 0.143
*14 I *C 27.688 0.143
*15 O *C 18.416 0.143
*16 O *C 33.616 0.143
*17 O *C 36.048 0.143
*18 O *C 17.808 0.143
*19 O *C 32.856 0.143
*20 O *C 33.464 0.143
*21 O *C 29.360 0.143
*22 O *C 33.160 0.143
*23 I *C 18.872 12.032
*24 I *C 18.872 12.032

*D_NET *137 2.576114 //LENGTH 31.156 LUMPCC 0 DR

*CONN
*I *33:Y O *L 0 *C 19.814 3.062
*I *32:RSTB I *L 1.082674 *C 26.928 3.824
*I *31:RSTB I *L 0.924894 *C 27.688 3.520
*I *25:RSTB I *L 0.924894 *C 27.840 7.168
*I *29:RSTB I *L 0.924894 *C 28.448 10.208
*I *30:RSTB I *L 0.924894 *C 31.792 3.824
*I *27:RSTB I *L 0.924894 *C 32.704 6.864
*I *26:RSTB I *L 0.924894 *C 33.312 10.208
*I *28:RSTB I *L 0.924894 *C 23.128 3.520
*N *137:9 *C 23.129 3.520
*N *137:10 *C 33.312 10.194
*N *137:11 *C 33.312 6.864
*N *137:12 *C 32.704 6.682
*N *137:13 *C 32.704 6.852
*N *137:14 *C 32.718 6.864
*N *137:15 *C 33.147 6.864
*N *137:16 *C 33.160 6.864
*N *137:17 *C 33.160 3.838
*N *137:18 *C 33.147 3.824
*N *137:19 *C 31.792 4.006
*N *137:20 *C 31.792 3.837
*N *137:21 *C 31.792 3.824
*N *137:22 *C 28.448 10.194
*N *137:23 *C 28.448 7.168
*N *137:24 *C 27.840 7.168
*N *137:25 *C 27.840 3.824
*N *137:26 *C 27.688 3.534
*N *137:27 *C 27.688 3.824
*N *137:28 *C 27.688 3.824
*N *137:29 *C 26.928 3.642
*N *137:30 *C 26.928 3.812
*N *137:31 *C 26.928 3.824
*N *137:32 *C 23.432 3.824
*N *137:33 *C 23.432 3.521
*N *137:34 *C 23.432 3.506
*N *137:35 *C 23.432 2.925
*N *137:36 *C 23.419 2.912
*N *137:37 *C 20.405 2.912
*N *137:38 *C 20.392 2.912
*N *137:39 *C 20.392 3.052
*N *137:40 *C 20.377 3.064

*CAP
0 *33:Y 0.02960394
1 *32:RSTB 0.001
2 *31:RSTB 0.001
3 *25:RSTB 0.001
4 *29:RSTB 0.001
5 *30:RSTB 0.001
6 *27:RSTB 0.001
7 *26:RSTB 0.001
8 *28:RSTB 0.001
9 *137:9 0.01020151
10 *137:10 0.1209538
11 *137:11 0.1311093
12 *137:12 0.01317391
13 *137:13 0.008472309
14 *137:14 0.02225063
15 *137:15 0.02225063
16 *137:16 0.1426908
17 *137:17 0.1354579
18 *137:18 0.04700024
19 *137:19 0.01042148
20 *137:20 0.005719884
21 *137:21 0.234647
22 *137:22 0.1322796
23 *137:23 0.1587566
24 *137:24 0.1506849
25 *137:25 0.1375568
26 *137:26 0.01728782
27 *137:27 0.02593515
28 *137:28 0.2200387
29 *137:29 0.01225678
30 *137:30 0.00755518
31 *137:31 0.2011818
32 *137:32 0.1790904
33 *137:33 0.008521544
34 *137:34 0.03625923
35 *137:35 0.02313516
36 *137:36 0.1396651
37 *137:37 0.1396651
38 *137:38 0.008048153
39 *137:39 0.008233061
40 *137:40 0.02800981

*RES
0 *33:Y *137:40 1.126
1 *137:10 *26:RSTB 1
2 *137:16 *137:15 0.5
3 *137:16 *137:11 0.2714286
4 *137:15 *137:14 0.7660714
5 *137:13 *27:RSTB 1
6 *137:13 *137:12 0.2825
7 *137:14 *137:13 0.5
8 *137:17 *137:16 5.404465
9 *137:18 *137:17 0.5
10 *137:20 *30:RSTB 1
11 *137:20 *137:19 0.2825
12 *137:21 *137:20 0.5
13 *137:21 *137:18 2.41875
14 *137:22 *29:RSTB 1
15 *137:24 *25:RSTB 1
16 *137:24 *137:23 1.085714
17 *137:27 *137:26 0.5187501
18 *137:27 *137:25 0.2714286
19 *137:28 *137:27 0.5
20 *137:28 *137:21 7.328572
21 *137:26 *31:RSTB 1
22 *137:30 *32:RSTB 1
23 *137:30 *137:29 0.2825
24 *137:31 *137:30 0.5
25 *137:31 *137:28 1.357143
26 *137:34 *137:33 0.5
27 *137:34 *137:9 0.5410715
28 *137:33 *137:32 0.5410715
29 *137:9 *28:RSTB 1
30 *137:35 *137:34 1.0375
31 *137:36 *137:35 0.5
32 *137:38 *137:37 0.5
33 *137:37 *137:36 5.380358
34 *137:40 *137:39 1
35 *137:39 *137:38 0.2325
36 *137:25 *137:24 5.971429
37 *137:23 *137:22 5.404465
38 *137:11 *137:10 5.947322
39 *137:32 *137:31 6.242857

*END

*D_NET *1 0.3863454 //LENGTH 4.424 LUMPCC 0 DR

*CONN
*P *1 I *L 0 *C 21.608 0.258
*I *39:A I *L 2.117502 *C 21.748 4.432
*N *1:2 *C 21.620 4.432
*N *1:3 *C 21.608 4.418

*CAP
0 *1 0.1800926
1 *39:A 0.01467427
2 *1:2 0.01308015
3 *1:3 0.1784984

*RES
0 *1 *1:3 7.429464
1 *1:2 *39:A 0.2133334
2 *1:3 *1:2 1

*END

*D_NET *2 0.3193053 //LENGTH 4.601 LUMPCC 0 DR

*CONN
*P *2 I *L 0 *C 21.000 0.258
*I *33:A I *L 1.468433 *C 19.328 2.912
*N *2:2 *C 19.328 2.899
*N *2:3 *C 19.328 2.014
*N *2:4 *C 19.341 2.000
*N *2:5 *C 20.986 2.000
*N *2:6 *C 21.000 1.987

*CAP
0 *2 0.06734075
1 *33:A 0.001
2 *2:2 0.03316047
3 *2:3 0.034304
4 *2:4 0.0589692
5 *2:5 0.0589692
6 *2:6 0.06556171

*RES
0 *2 *2:6 3.086607
1 *2:2 *33:A 1
2 *2:3 *2:2 1.580357
3 *2:4 *2:3 0.5
4 *2:6 *2:5 0.5
5 *2:5 *2:4 2.9375

*END

*D_NET *3 3.661657 //LENGTH 44.241 LUMPCC 0 DR

*CONN
*P *3 I *L 0 *C 34.680 0.258
*I *34:A I *L 0.604022 *C 29.512 6.256
*I *112:A1 I *L 0.559408 *C 18.720 7.776
*I *60:A1 I *L 0.559408 *C 13.400 11.120
*I *57:A1 I *L 0.559408 *C 9.904 9.600
*I *120:A1 I *L 0.559408 *C 21.608 11.120
*I *123:A1 I *L 0.546332 *C 21.760 9.296
*I *48:A1 I *L 0.616969 *C 18.416 11.272
*N *3:8 *C 18.416 11.260
*N *3:9 *C 21.760 9.309
*N *3:10 *C 21.760 11.120
*N *3:11 *C 21.609 11.120
*N *3:12 *C 21.595 11.120
*N *3:13 *C 9.904 9.614
*N *3:14 *C 9.904 9.891
*N *3:15 *C 9.918 9.904
*N *3:16 *C 10.651 9.904
*N *3:17 *C 10.664 9.918
*N *3:18 *C 10.664 11.107
*N *3:19 *C 10.678 11.120
*N *3:20 *C 13.400 10.938
*N *3:21 *C 13.400 11.107
*N *3:22 *C 13.400 11.120
*N *3:23 *C 18.416 11.120
*N *3:24 *C 18.416 11.094
*N *3:25 *C 18.416 7.790
*N *3:26 *C 18.430 7.776
*N *3:27 *C 18.720 7.594
*N *3:28 *C 18.720 7.764
*N *3:29 *C 18.720 7.776
*N *3:30 *C 29.651 7.776
*N *3:31 *C 29.664 7.763
*N *3:32 *C 29.513 6.256
*N *3:33 *C 29.664 6.256
*N *3:34 *C 29.664 5.054
*N *3:35 *C 29.678 5.040
*N *3:36 *C 34.679 5.040
*N *3:37 *C 34.680 5.039

*CAP
0 *3 0.1877197
1 *34:A 0.001
2 *112:A1 0.001
3 *60:A1 0.001
4 *57:A1 0.001
5 *120:A1 0.001
6 *123:A1 0.001
7 *48:A1 0.001
8 *3:8 0.007138485
9 *3:9 0.1110608
10 *3:10 0.1216934
11 *3:11 0.003008456
12 *3:12 0.1320427
13 *3:13 0.01412066
14 *3:14 0.01526419
15 *3:15 0.03748899
16 *3:16 0.03748899
17 *3:17 0.05400205
18 *3:18 0.05400205
19 *3:19 0.1095392
20 *3:20 0.0169234
21 *3:21 0.0122218
22 *3:22 0.331133
23 *3:23 0.3536366
24 *3:24 0.1998023
25 *3:25 0.1897413
26 *3:26 0.01196562
27 *3:27 0.01563868
28 *3:28 0.01093708
29 *3:29 0.4239062
30 *3:30 0.4101615
31 *3:31 0.05724791
32 *3:32 0.004168296
33 *3:33 0.1119499
34 *3:34 0.04405307
35 *3:35 0.1953297
36 *3:36 0.1953297
37 *3:37 0.1859407

*RES
0 *3 *3:37 8.537501
1 *3:34 *3:33 2.147322
2 *3:35 *3:34 0.5
3 *3:37 *3:36 0.5
4 *3:36 *3:35 8.931252
5 *3:32 *34:A 1
6 *3:9 *123:A1 1
7 *3:11 *120:A1 1
8 *3:11 *3:10 0.2696429
9 *3:31 *3:30 0.5
10 *3:30 *3:29 19.51875
11 *3:28 *112:A1 1
12 *3:28 *3:27 0.2825
13 *3:29 *3:28 0.5
14 *3:29 *3:26 0.5187501
15 *3:12 *3:11 0.5
16 *3:8 *48:A1 1
17 *3:24 *3:23 0.5
18 *3:24 *3:8 0.2758334
19 *3:23 *3:22 8.957143
20 *3:23 *3:12 5.675893
21 *3:25 *3:24 5.900893
22 *3:26 *3:25 0.5
23 *3:21 *60:A1 1
24 *3:21 *3:20 0.2825
25 *3:22 *3:21 0.5
26 *3:22 *3:19 4.861607
27 *3:18 *3:17 2.123214
28 *3:19 *3:18 0.5
29 *3:17 *3:16 0.5
30 *3:16 *3:15 1.308929
31 *3:14 *3:13 0.4946429
32 *3:15 *3:14 0.5
33 *3:13 *57:A1 1
34 *3:10 *3:9 3.233036
35 *3:33 *3:32 0.2696429
36 *3:33 *3:31 2.690179

*END

*D_NET *4 2.959828 //LENGTH 36.847 LUMPCC 0 DR

*CONN
*P *4 I *L 0 *C 34.224 0.258
*I *35:A I *L 1.468433 *C 31.500 7.776
*I *48:A2 I *L 0.557409 *C 18.568 11.120
*I *126:A1 I *L 0.616969 *C 16.440 11.272
*I *116:A1 I *L 0.616969 *C 14.920 12.792
*I *131:A1 I *L 0.559408 *C 20.240 12.944
*I *107:A1 I *L 0.559408 *C 19.784 9.600
*N *4:7 *C 19.784 9.614
*N *4:8 *C 20.240 12.931
*N *4:9 *C 20.240 10.830
*N *4:10 *C 20.227 10.816
*N *4:11 *C 14.920 12.779
*N *4:12 *C 14.920 12.046
*N *4:13 *C 14.934 12.032
*N *4:14 *C 16.427 12.032
*N *4:15 *C 16.440 12.019
*N *4:16 *C 16.440 11.272
*N *4:17 *C 16.440 10.830
*N *4:18 *C 16.454 10.816
*N *4:19 *C 18.568 11.107
*N *4:20 *C 18.568 10.830
*N *4:21 *C 18.568 10.816
*N *4:22 *C 19.632 10.816
*N *4:23 *C 19.632 10.803
*N *4:24 *C 19.632 9.904
*N *4:25 *C 19.784 9.891
*N *4:26 *C 19.797 9.904
*N *4:27 *C 30.259 9.904
*N *4:28 *C 30.272 9.891
*N *4:29 *C 30.272 7.790
*N *4:30 *C 30.286 7.776
*N *4:31 *C 31.640 7.594
*N *4:32 *C 31.628 7.776
*N *4:33 *C 31.640 7.764
*N *4:34 *C 31.640 7.776
*N *4:35 *C 34.211 7.776
*N *4:36 *C 34.224 7.763

*CAP
0 *4 0.2761877
1 *35:A 0.01177777
2 *48:A2 0.001
3 *126:A1 0.001
4 *116:A1 0.001
5 *131:A1 0.001
6 *107:A1 0.001
7 *4:7 0.01435649
8 *4:8 0.1069926
9 *4:9 0.1081362
10 *4:10 0.02567423
11 *4:11 0.03381075
12 *4:12 0.03495428
13 *4:13 0.05956872
14 *4:14 0.05956872
15 *4:15 0.04262268
16 *4:16 0.07650316
17 *4:17 0.03324497
18 *4:18 0.09561744
19 *4:19 0.01969133
20 *4:20 0.02083486
21 *4:21 0.1411947
22 *4:22 0.07125147
23 *4:23 0.04352782
24 *4:24 0.05310823
25 *4:25 0.0233014
26 *4:26 0.4253102
27 *4:27 0.4253102
28 *4:28 0.08803105
29 *4:29 0.08803105
30 *4:30 0.0476097
31 *4:31 0.01532626
32 *4:32 0.01018365
33 *4:33 0.0119531
34 *4:34 0.133064
35 *4:35 0.08367541
36 *4:36 0.2744088

*RES
0 *4 *4:36 13.40089
1 *4:35 *4:34 4.590179
2 *4:36 *4:35 0.5
3 *4:33 *4:32 1
4 *4:33 *4:31 0.2825
5 *4:34 *4:33 0.5
6 *4:34 *4:30 2.41875
7 *4:32 *35:A 0.2125
8 *4:7 *107:A1 1
9 *4:29 *4:28 3.751786
10 *4:30 *4:29 0.5
11 *4:28 *4:27 0.5
12 *4:27 *4:26 18.68036
13 *4:25 *4:24 0.2714286
14 *4:25 *4:7 0.4946429
15 *4:26 *4:25 0.5
16 *4:9 *4:8 3.751786
17 *4:10 *4:9 0.5
18 *4:8 *131:A1 1
19 *4:23 *4:22 0.5
20 *4:22 *4:21 1.9
21 *4:22 *4:10 1.061607
22 *4:20 *4:19 0.4946429
23 *4:21 *4:20 0.5
24 *4:21 *4:18 3.775893
25 *4:19 *48:A2 1
26 *4:16 *126:A1 1
27 *4:16 *4:15 1.333036
28 *4:17 *4:16 0.7901787
29 *4:18 *4:17 0.5
30 *4:15 *4:14 0.5
31 *4:14 *4:13 2.666071
32 *4:12 *4:11 1.308929
33 *4:13 *4:12 0.5
34 *4:11 *116:A1 1
35 *4:24 *4:23 1.604464

*END

*D_NET *5 5.428717 //LENGTH 66.814 LUMPCC 0 DR

*CONN
*P *5 I *L 0 *C 34.984 0.258
*I *37:A I *L 2.81074 *C 32.552 2.912
*I *122:A1 I *L 0.559408 *C 23.584 9.600
*I *130:A2 I *L 0.526872 *C 21.730 12.664
*I *119:A2 I *L 0.526872 *C 21.000 15.984
*I *77:A1 I *L 0.559408 *C 19.936 19.632
*I *96:A1 I *L 0.616969 *C 19.328 21.304
*I *111:A2 I *L 0.526872 *C 18.264 5.952
*I *90:A1 I *L 0.616969 *C 10.208 6.104
*I *65:A1 I *L 0.616969 *C 9.144 4.584
*I *61:A1 I *L 0.616969 *C 7.654 2.785
*I *58:A1 I *L 0.559408 *C 11.424 4.432
*I *81:A1 I *L 0.546332 *C 20.240 5.952
*I *54:A1 I *L 0.616969 *C 20.559 7.953
*N *5:14 *C 20.833 7.928
*N *5:15 *C 20.848 7.915
*N *5:16 *C 20.848 7.486
*N *5:17 *C 20.835 7.472
*N *5:18 *C 20.240 5.770
*N *5:19 *C 20.240 5.940
*N *5:20 *C 20.227 5.952
*N *5:21 *C 11.424 4.250
*N *5:22 *C 11.424 4.420
*N *5:23 *C 11.411 4.432
*N *5:24 *C 8.369 2.760
*N *5:25 *C 8.384 2.774
*N *5:26 *C 8.384 4.115
*N *5:27 *C 8.398 4.128
*N *5:28 *C 9.144 4.128
*N *5:29 *C 9.144 4.432
*N *5:30 *C 9.144 4.445
*N *5:31 *C 9.144 4.598
*N *5:32 *C 9.144 5.939
*N *5:33 *C 9.158 5.952
*N *5:34 *C 10.208 6.091
*N *5:35 *C 10.208 5.952
*N *5:36 *C 10.208 5.952
*N *5:37 *C 18.264 5.770
*N *5:38 *C 18.264 5.940
*N *5:39 *C 18.264 5.952
*N *5:40 *C 19.480 5.952
*N *5:41 *C 19.480 5.966
*N *5:42 *C 19.480 7.459
*N *5:43 *C 19.494 7.472
*N *5:44 *C 20.240 7.472
*N *5:45 *C 20.240 7.486
*N *5:46 *C 20.240 9.283
*N *5:47 *C 20.254 9.296
*N *5:48 *C 19.328 21.291
*N *5:49 *C 19.328 19.646
*N *5:50 *C 19.341 19.632
*N *5:51 *C 19.936 19.450
*N *5:52 *C 19.936 19.620
*N *5:53 *C 19.936 19.632
*N *5:54 *C 20.835 19.632
*N *5:55 *C 20.848 19.619
*N *5:56 *C 20.848 18.430
*N *5:57 *C 20.848 18.416
*N *5:58 *C 20.988 18.416
*N *5:59 *C 21.000 18.402
*N *5:60 *C 21.000 15.984
*N *5:61 *C 21.015 12.640
*N *5:62 *C 21.000 12.640
*N *5:63 *C 21.000 12.350
*N *5:64 *C 21.014 12.336
*N *5:65 *C 21.747 12.336
*N *5:66 *C 21.760 12.322
*N *5:67 *C 21.760 9.309
*N *5:68 *C 21.760 9.296
*N *5:69 *C 23.584 9.587
*N *5:70 *C 23.584 9.309
*N *5:71 *C 23.584 9.296
*N *5:72 *C 28.891 9.296
*N *5:73 *C 28.904 9.283
*N *5:74 *C 28.904 2.925
*N *5:75 *C 28.918 2.912
*N *5:76 *C 32.552 2.730
*N *5:77 *C 32.552 2.900
*N *5:78 *C 32.552 2.912
*N *5:79 *C 34.971 2.912
*N *5:80 *C 34.984 2.899

*CAP
0 *5 0.1049269
1 *37:A 0.001
2 *122:A1 0.001
3 *130:A2 0.0376748
4 *119:A2 0.001
5 *77:A1 0.001
6 *96:A1 0.001
7 *111:A2 0.001
8 *90:A1 0.001
9 *65:A1 0.001
10 *61:A1 0.03980329
11 *58:A1 0.001
12 *81:A1 0.001
13 *54:A1 0.01730327
14 *5:14 0.01570914
15 *5:15 0.02324316
16 *5:16 0.02305825
17 *5:17 0.02839674
18 *5:18 0.01584945
19 *5:19 0.01114785
20 *5:20 0.03514416
21 *5:21 0.01477992
22 *5:22 0.01007832
23 *5:23 0.09512596
24 *5:24 0.03820917
25 *5:25 0.06472487
26 *5:26 0.06453995
27 *5:27 0.03514124
28 *5:28 0.04714816
29 *5:29 0.1053538
30 *5:30 0.007663034
31 *5:31 0.06092248
32 *5:32 0.05262395
33 *5:33 0.04299801
34 *5:34 0.009149726
35 *5:35 0.01029326
36 *5:36 0.3749735
37 *5:37 0.01504812
38 *5:38 0.01034652
39 *5:39 0.3833833
40 *5:40 0.08833104
41 *5:41 0.0891346
42 *5:42 0.0891346
43 *5:43 0.03542049
44 *5:44 0.06559627
45 *5:45 0.08855666
46 *5:46 0.08855666
47 *5:47 0.06289577
48 *5:48 0.06226024
49 *5:49 0.06340376
50 *5:50 0.01993943
51 *5:51 0.01140561
52 *5:52 0.006704014
53 *5:53 0.05131402
54 *5:54 0.02959566
55 *5:55 0.03722281
56 *5:56 0.03722281
57 *5:57 0.009960959
58 *5:58 0.009960857
59 *5:59 0.1271412
60 *5:60 0.2786357
61 *5:61 0.03608068
62 *5:62 0.1664807
63 *5:63 0.01365775
64 *5:64 0.03280587
65 *5:65 0.03280597
66 *5:66 0.09677854
67 *5:67 0.09677854
68 *5:68 0.1408844
69 *5:69 0.02172346
70 *5:70 0.02286699
71 *5:71 0.2982894
72 *5:72 0.2203009
73 *5:73 0.2810618
74 *5:74 0.2810618
75 *5:75 0.1232183
76 *5:76 0.01167695
77 *5:77 0.006975355
78 *5:78 0.2049821
79 *5:79 0.07998475
80 *5:80 0.1031479

*RES
0 *5 *5:80 4.715178
1 *5:80 *5:79 0.5
2 *5:79 *5:78 4.31875
3 *5:77 *37:A 1
4 *5:77 *5:76 0.2825
5 *5:78 *5:77 0.5
6 *5:78 *5:75 6.490179
7 *5:74 *5:73 11.35179
8 *5:75 *5:74 0.5
9 *5:73 *5:72 0.5
10 *5:72 *5:71 9.475893
11 *5:70 *5:69 0.4946429
12 *5:71 *5:70 0.5
13 *5:71 *5:68 3.257143
14 *5:69 *122:A1 1
15 *5:60 *119:A2 1
16 *5:60 *5:59 4.31875
17 *5:61 *130:A2 1.43
18 *5:62 *5:61 1
19 *5:62 *5:60 5.971429
20 *5:68 *5:67 0.5
21 *5:68 *5:47 2.690179
22 *5:67 *5:66 5.380358
23 *5:65 *5:64 1.308929
24 *5:66 *5:65 0.5
25 *5:63 *5:62 0.5187501
26 *5:64 *5:63 0.5
27 *5:16 *5:15 0.7660715
28 *5:17 *5:16 0.5
29 *5:14 *54:A1 0.548
30 *5:15 *5:14 1
31 *5:46 *5:45 3.208929
32 *5:47 *5:46 0.5
33 *5:45 *5:44 0.5
34 *5:44 *5:43 1.333036
35 *5:44 *5:17 1.061607
36 *5:59 *5:58 0.5
37 *5:58 *5:57 0.2325
38 *5:57 *5:56 0.5
39 *5:56 *5:55 2.123214
40 *5:54 *5:53 1.604464
41 *5:55 *5:54 0.5
42 *5:52 *77:A1 1
43 *5:52 *5:51 0.2825
44 *5:53 *5:52 0.5
45 *5:53 *5:50 1.061607
46 *5:19 *81:A1 1
47 *5:19 *5:18 0.2825
48 *5:20 *5:19 0.5
49 *5:42 *5:41 2.666071
50 *5:43 *5:42 0.5
51 *5:41 *5:40 0.5
52 *5:40 *5:39 2.171429
53 *5:40 *5:20 1.333036
54 *5:49 *5:48 2.9375
55 *5:50 *5:49 0.5
56 *5:48 *96:A1 1
57 *5:38 *111:A2 1
58 *5:38 *5:37 0.2825
59 *5:39 *5:38 0.5
60 *5:39 *5:36 14.38572
61 *5:35 *5:34 0.2325
62 *5:36 *5:35 0.5
63 *5:36 *5:33 1.875893
64 *5:34 *90:A1 1
65 *5:22 *58:A1 1
66 *5:22 *5:21 0.2825
67 *5:23 *5:22 0.5
68 *5:32 *5:31 2.394643
69 *5:33 *5:32 0.5
70 *5:31 *65:A1 1
71 *5:31 *5:30 0.255
72 *5:30 *5:29 0.5
73 *5:29 *5:28 0.5428572
74 *5:29 *5:23 4.047322
75 *5:26 *5:25 2.394643
76 *5:27 *5:26 0.5
77 *5:24 *61:A1 1.43
78 *5:25 *5:24 1
79 *5:28 *5:27 1.333036

*END

*D_NET *6 5.511035 //LENGTH 69.021 LUMPCC 0 DR

*CONN
*P *6 I *L 0 *C 34.832 0.258
*I *49:A1 I *L 0.559408 *C 13.248 6.256
*I *71:A1 I *L 0.616969 *C 6.104 9.448
*I *83:A1 I *L 0.616969 *C 5.344 7.928
*I *106:A1 I *L 0.559408 *C 8.536 7.776
*I *98:A1 I *L 0.616969 *C 7.457 11.297
*I *124:A1 I *L 0.559408 *C 14.920 11.120
*I *76:A2 I *L 0.526872 *C 16.440 18.112
*I *132:A2 I *L 0.526872 *C 21.897 18.113
*I *51:A1 I *L 0.616969 *C 21.608 19.480
*I *114:A1 I *L 0.559408 *C 15.528 14.464
*I *60:A2 I *L 0.526872 *C 13.552 11.424
*I *36:A I *L 1.468433 *C 34.984 4.432
*N *6:13 *C 34.984 4.250
*N *6:14 *C 34.984 4.420
*N *6:15 *C 34.971 4.432
*N *6:16 *C 13.552 11.411
*N *6:17 *C 15.528 14.450
*N *6:18 *C 15.528 14.160
*N *6:19 *C 21.608 19.466
*N *6:20 *C 21.623 18.112
*N *6:21 *C 21.608 18.126
*N *6:22 *C 21.595 18.112
*N *6:23 *C 16.440 17.930
*N *6:24 *C 16.440 18.100
*N *6:25 *C 16.440 18.112
*N *6:26 *C 16.149 18.112
*N *6:27 *C 16.136 18.099
*N *6:28 *C 16.136 14.174
*N *6:29 *C 16.123 14.160
*N *6:30 *C 15.694 14.160
*N *6:31 *C 15.680 14.147
*N *6:32 *C 15.680 10.830
*N *6:33 *C 15.667 10.816
*N *6:34 *C 14.920 11.107
*N *6:35 *C 14.920 10.830
*N *6:36 *C 14.920 10.816
*N *6:37 *C 8.536 7.594
*N *6:38 *C 8.536 7.764
*N *6:39 *C 8.523 7.776
*N *6:40 *C 6.104 7.776
*N *6:41 *C 5.344 7.928
*N *6:42 *C 5.344 8.068
*N *6:43 *C 5.357 8.080
*N *6:44 *C 6.104 8.079
*N *6:45 *C 6.104 8.094
*N *6:46 *C 6.104 9.448
*N *6:47 *C 6.104 11.258
*N *6:48 *C 6.119 11.272
*N *6:49 *C 7.457 11.297
*N *6:50 *C 7.472 11.258
*N *6:51 *C 7.472 10.830
*N *6:52 *C 7.486 10.816
*N *6:53 *C 13.552 10.816
*N *6:54 *C 13.552 10.816
*N *6:55 *C 13.248 6.270
*N *6:56 *C 13.248 6.560
*N *6:57 *C 13.552 6.574
*N *6:58 *C 13.566 6.560
*N *6:59 *C 34.211 6.560
*N *6:60 *C 34.224 6.546
*N *6:61 *C 34.224 4.446
*N *6:62 *C 34.238 4.432
*N *6:63 *C 34.528 4.432
*N *6:64 *C 34.528 4.418
*N *6:65 *C 34.528 1.392
*N *6:66 *C 34.832 1.392

*CAP
0 *6 0.04204301
1 *49:A1 0.001
2 *71:A1 0.001
3 *83:A1 0.001
4 *106:A1 0.001
5 *98:A1 0.001
6 *124:A1 0.001
7 *76:A2 0.001
8 *132:A2 0.01748456
9 *51:A1 0.001
10 *114:A1 0.001
11 *60:A2 0.001
12 *36:A 0.001
13 *6:13 0.01172765
14 *6:14 0.007026048
15 *6:15 0.0184015
16 *6:16 0.02826109
17 *6:17 0.01675576
18 *6:18 0.02696036
19 *6:19 0.06459729
20 *6:20 0.01589043
21 *6:21 0.06414669
22 *6:22 0.20841
23 *6:23 0.01629878
24 *6:24 0.01159718
25 *6:25 0.2224483
26 *6:26 0.01225929
27 *6:27 0.1785684
28 *6:28 0.1785684
29 *6:29 0.02131105
30 *6:30 0.02131105
31 *6:31 0.2101767
32 *6:32 0.2028946
33 *6:33 0.03512209
34 *6:34 0.01339924
35 *6:35 0.01454277
36 *6:36 0.09445307
37 *6:37 0.01200979
38 *6:38 0.007308193
39 *6:39 0.08567081
40 *6:40 0.09789339
41 *6:41 0.007609602
42 *6:42 0.008753133
43 *6:43 0.0277879
44 *6:44 0.03823144
45 *6:45 0.056035
46 *6:46 0.125516
47 *6:47 0.06903037
48 *6:48 0.06286687
49 *6:49 0.06153844
50 *6:50 0.01817581
51 *6:51 0.01931934
52 *6:52 0.2343828
53 *6:53 0.2937137
54 *6:54 0.2359332
55 *6:55 0.01897079
56 *6:56 0.03446528
57 *6:57 0.2173215
58 *6:58 0.7495272
59 *6:59 0.7495272
60 *6:60 0.08217539
61 *6:61 0.08217539
62 *6:62 0.01239868
63 *6:63 0.03257931
64 *6:64 0.1205431
65 *6:65 0.1320995
66 *6:66 0.05182046

*RES
0 *6 *6:66 2.025
1 *6:14 *36:A 1
2 *6:14 *6:13 0.2825
3 *6:15 *6:14 0.5
4 *6:63 *6:62 0.5187501
5 *6:63 *6:15 0.7901787
6 *6:64 *6:63 0.5
7 *6:19 *51:A1 1
8 *6:20 *132:A2 0.5480001
9 *6:21 *6:20 1
10 *6:21 *6:19 2.394643
11 *6:22 *6:21 0.5
12 *6:24 *76:A2 1
13 *6:24 *6:23 0.2825
14 *6:25 *6:24 0.5
15 *6:25 *6:22 9.204464
16 *6:27 *6:26 0.5
17 *6:26 *6:25 0.51875
18 *6:28 *6:27 7.008929
19 *6:29 *6:28 0.5
20 *6:31 *6:30 0.5
21 *6:31 *6:18 0.2714286
22 *6:30 *6:29 0.7660714
23 *6:17 *114:A1 1
24 *6:32 *6:31 5.923214
25 *6:33 *6:32 0.5
26 *6:35 *6:34 0.4946429
27 *6:36 *6:35 0.5
28 *6:36 *6:33 1.333036
29 *6:34 *124:A1 1
30 *6:16 *60:A2 1
31 *6:54 *6:53 0.5
32 *6:54 *6:16 1.061607
33 *6:53 *6:52 10.83304
34 *6:53 *6:36 2.442857
35 *6:61 *6:60 3.751786
36 *6:62 *6:61 0.5
37 *6:60 *6:59 0.5
38 *6:59 *6:58 36.86607
39 *6:57 *6:56 0.5428572
40 *6:57 *6:54 7.575894
41 *6:58 *6:57 0.5
42 *6:55 *49:A1 1
43 *6:51 *6:50 0.7660715
44 *6:52 *6:51 0.5
45 *6:50 *6:49 1
46 *6:38 *106:A1 1
47 *6:38 *6:37 0.2825
48 *6:39 *6:38 0.5
49 *6:48 *6:47 1
50 *6:47 *6:46 3.233036
51 *6:46 *71:A1 1
52 *6:46 *6:45 2.41875
53 *6:45 *6:44 0.5
54 *6:44 *6:43 1.333036
55 *6:44 *6:40 0.5410715
56 *6:42 *6:41 0.2325
57 *6:43 *6:42 0.5
58 *6:41 *83:A1 1
59 *6:56 *6:55 0.5187501
60 *6:18 *6:17 0.51875
61 *6:40 *6:39 4.31875
62 *6:65 *6:64 5.404465
63 *6:66 *6:65 0.5428572
64 *6:49 *6:48 2.6754
65 *6:49 *98:A1 0.001

*END

*D_NET *7 2.940428 //LENGTH 38.441 LUMPCC 0 DR

*CONN
*P *7 I *L 0 *C 35.440 0.258
*I *133:A1 I *L 0.559408 *C 22.064 14.464
*I *51:A2 I *L 0.557409 *C 21.456 19.632
*I *77:A2 I *L 0.526872 *C 19.784 19.328
*I *104:A1 I *L 0.546332 *C 18.416 18.112
*N *7:5 *C 18.416 18.126
*N *7:6 *C 18.416 18.707
*N *7:7 *C 18.430 18.720
*N *7:8 *C 19.784 19.315
*N *7:9 *C 19.784 18.733
*N *7:10 *C 19.784 18.720
*N *7:11 *C 21.456 19.619
*N *7:12 *C 21.456 18.733
*N *7:13 *C 21.456 18.720
*N *7:14 *C 21.899 18.720
*N *7:15 *C 21.912 18.707
*N *7:16 *C 21.912 15.376
*N *7:17 *C 22.064 15.376
*N *7:18 *C 22.064 14.464
*N *7:19 *C 22.064 11.133
*N *7:20 *C 22.078 11.120
*N *7:21 *C 35.427 11.120
*N *7:22 *C 35.440 11.107

*CAP
0 *7 0.330009
1 *133:A1 0.001
2 *51:A2 0.001
3 *77:A2 0.001
4 *104:A1 0.001
5 *7:5 0.03028167
6 *7:6 0.0314252
7 *7:7 0.04871907
8 *7:8 0.03596712
9 *7:9 0.03711065
10 *7:10 0.109176
11 *7:11 0.04319272
12 *7:12 0.04433626
13 *7:13 0.07619669
14 *7:14 0.0157398
15 *7:15 0.1705799
16 *7:16 0.1795712
17 *7:17 0.06780033
18 *7:18 0.2707817
19 *7:19 0.2113372
20 *7:20 0.4529865
21 *7:21 0.4529866
22 *7:22 0.32823

*RES
0 *7 *7:22 19.37232
1 *7:18 *133:A1 1
2 *7:18 *7:17 1.628572
3 *7:19 *7:18 5.947322
4 *7:20 *7:19 0.5
5 *7:21 *7:20 23.8375
6 *7:22 *7:21 0.5
7 *7:15 *7:14 0.5
8 *7:14 *7:13 0.7901786
9 *7:12 *7:11 1.580357
10 *7:13 *7:12 0.5
11 *7:13 *7:10 2.985714
12 *7:11 *51:A2 1
13 *7:9 *7:8 1.0375
14 *7:10 *7:9 0.5
15 *7:10 *7:7 2.41875
16 *7:8 *77:A2 1
17 *7:6 *7:5 1.0375
18 *7:7 *7:6 0.5
19 *7:5 *104:A1 1
20 *7:16 *7:15 5.947321
21 *7:17 *7:16 0.2714286

*END

*D_NET *8 3.728164 //LENGTH 39.467 LUMPCC 0 DR

*CONN
*P *8 I *L 0 *C 29.816 0.272
*I *132:A1 I *L 0.559408 *C 22.064 17.808
*I *125:A1 I *L 0.559408 *C 18.720 14.505
*I *76:A1 I *L 0.559408 *C 16.592 17.808
*I *94:A1 I *L 0.616969 *C 15.558 19.505
*I *52:A1 I *L 0.616969 *C 23.554 17.985
*N *8:6 *C 23.295 17.960
*N *8:7 *C 23.280 17.947
*N *8:8 *C 16.425 19.480
*N *8:9 *C 16.440 19.466
*N *8:10 *C 16.440 18.720
*N *8:11 *C 16.592 18.720
*N *8:12 *C 16.592 17.808
*N *8:13 *C 16.592 17.213
*N *8:14 *C 16.605 17.200
*N *8:15 *C 18.720 14.616
*N *8:16 *C 18.431 14.616
*N *8:17 *C 18.416 14.630
*N *8:18 *C 18.416 17.187
*N *8:19 *C 18.416 17.200
*N *8:20 *C 22.064 17.794
*N *8:21 *C 22.064 17.213
*N *8:22 *C 22.064 17.200
*N *8:23 *C 23.267 17.200
*N *8:24 *C 23.280 17.200
*N *8:25 *C 23.736 17.200
*N *8:26 *C 23.736 10.360
*N *8:27 *C 23.888 10.360
*N *8:28 *C 23.888 1.862
*N *8:29 *C 23.903 1.848
*N *8:30 *C 29.801 1.848
*N *8:31 *C 29.816 1.835

*CAP
0 *8 0.05168974
1 *132:A1 0.001
2 *125:A1 0.01224624
3 *76:A1 0.001
4 *94:A1 0.04532532
5 *52:A1 0.01969488
6 *8:6 0.01810075
7 *8:7 0.03644195
8 *8:8 0.04373119
9 *8:9 0.03994221
10 *8:10 0.04881688
11 *8:11 0.05250178
12 *8:12 0.06897088
13 *8:13 0.02489318
14 *8:14 0.06994078
15 *8:15 0.03802616
16 *8:16 0.0241858
17 *8:17 0.1550819
18 *8:18 0.154897
19 *8:19 0.2166574
20 *8:20 0.04695508
21 *8:21 0.04809862
22 *8:22 0.1866388
23 *8:23 0.0399222
24 *8:24 0.05385114
25 *8:25 0.3583378
26 *8:26 0.3481469
27 *8:27 0.413328
28 *8:28 0.4043307
29 *8:29 0.3276575
30 *8:30 0.3276575
31 *8:31 0.05009561

*RES
0 *8 *8:31 2.790179
1 *8:29 *8:28 1
2 *8:28 *8:27 15.17589
3 *8:30 *8:29 11.796
4 *8:31 *8:30 1
5 *8:6 *52:A1 0.5180001
6 *8:7 *8:6 1
7 *8:24 *8:23 0.5
8 *8:24 *8:7 1.333036
9 *8:23 *8:22 2.147322
10 *8:21 *8:20 1.0375
11 *8:22 *8:21 0.5
12 *8:22 *8:19 6.514287
13 *8:20 *132:A1 1
14 *8:18 *8:17 4.566072
15 *8:19 *8:18 0.5
16 *8:19 *8:14 3.233036
17 *8:16 *8:15 0.5780001
18 *8:17 *8:16 1
19 *8:12 *76:A1 1
20 *8:12 *8:11 1.628572
21 *8:13 *8:12 1.061607
22 *8:14 *8:13 0.5
23 *8:8 *94:A1 1.734
24 *8:9 *8:8 1
25 *8:15 *125:A1 0.352
26 *8:10 *8:9 1.333036
27 *8:11 *8:10 0.2714286
28 *8:25 *8:24 0.8142858
29 *8:26 *8:25 12.21429
30 *8:27 *8:26 0.2714286

*END

*D_NET *9 3.011026 //LENGTH 36.132 LUMPCC 0 DR

*CONN
*P *9 I *L 0 *C 19.936 0.258
*I *124:A2 I *L 0.526872 *C 14.768 11.424
*I *49:A2 I *L 0.526872 *C 13.096 5.952
*I *90:A2 I *L 0.557409 *C 10.360 6.256
*I *115:A1 I *L 0.559408 *C 17.200 14.464
*I *78:A1 I *L 0.559408 *C 19.176 16.288
*N *9:6 *C 19.176 16.274
*N *9:7 *C 19.176 15.694
*N *9:8 *C 19.163 15.680
*N *9:9 *C 17.213 15.680
*N *9:10 *C 17.200 15.667
*N *9:11 *C 17.200 14.478
*N *9:12 *C 17.048 14.464
*N *9:13 *C 10.360 6.255
*N *9:14 *C 10.360 5.662
*N *9:15 *C 10.373 5.648
*N *9:16 *C 13.096 5.939
*N *9:17 *C 13.096 5.662
*N *9:18 *C 13.096 5.648
*N *9:19 *C 13.843 5.648
*N *9:20 *C 13.856 5.662
*N *9:21 *C 13.856 11.411
*N *9:22 *C 13.870 11.424
*N *9:23 *C 14.768 11.242
*N *9:24 *C 14.768 11.412
*N *9:25 *C 14.768 11.424
*N *9:26 *C 17.047 11.424
*N *9:27 *C 17.048 11.424
*N *9:28 *C 17.048 10.512
*N *9:29 *C 17.200 10.512
*N *9:30 *C 17.200 9.005
*N *9:31 *C 17.213 8.992
*N *9:32 *C 19.619 8.992
*N *9:33 *C 19.632 8.979
*N *9:34 *C 19.632 2.317
*N *9:35 *C 19.646 2.304
*N *9:36 *C 19.922 2.304
*N *9:37 *C 19.936 2.291

*CAP
0 *9 0.07308561
1 *124:A2 0.001
2 *49:A2 0.001
3 *90:A2 0.001
4 *115:A1 0.001
5 *78:A1 0.001
6 *9:6 0.0351041
7 *9:7 0.03624763
8 *9:8 0.08105005
9 *9:9 0.08105005
10 *9:10 0.04616264
11 *9:11 0.05210029
12 *9:12 0.1444361
13 *9:13 0.02930334
14 *9:14 0.03044687
15 *9:15 0.1120153
16 *9:16 0.01627101
17 *9:17 0.01741454
18 *9:18 0.1467037
19 *9:19 0.03290936
20 *9:20 0.2946492
21 *9:21 0.2946492
22 *9:22 0.03753517
23 *9:23 0.01486979
24 *9:24 0.01016819
25 *9:25 0.1378433
26 *9:26 0.09852911
27 *9:27 0.1845948
28 *9:28 0.05646981
29 *9:29 0.0904019
30 *9:30 0.08117205
31 *9:31 0.1095997
32 *9:32 0.1095998
33 *9:33 0.2233265
34 *9:34 0.2233265
35 *9:35 0.01684182
36 *9:36 0.01684172
37 *9:37 0.07130656

*RES
0 *9 *9:37 3.629464
1 *9:10 *9:9 0.5
2 *9:9 *9:8 3.480358
3 *9:7 *9:6 1.0375
4 *9:8 *9:7 0.5
5 *9:6 *78:A1 1
6 *9:11 *115:A1 1
7 *9:11 *9:10 2.123214
8 *9:30 *9:29 2.690179
9 *9:31 *9:30 0.5
10 *9:32 *9:31 4.294643
11 *9:33 *9:32 0.5
12 *9:35 *9:34 0.5
13 *9:34 *9:33 11.89464
14 *9:37 *9:36 0.5
15 *9:36 *9:35 0.4946429
16 *9:27 *9:26 0.5
17 *9:27 *9:12 5.428572
18 *9:26 *9:25 4.069643
19 *9:24 *124:A2 1
20 *9:24 *9:23 0.2825
21 *9:25 *9:24 0.5
22 *9:25 *9:22 1.604464
23 *9:21 *9:20 10.26607
24 *9:22 *9:21 0.5
25 *9:20 *9:19 0.5
26 *9:19 *9:18 1.333036
27 *9:17 *9:16 0.4946429
28 *9:18 *9:17 0.5
29 *9:18 *9:15 4.861607
30 *9:16 *49:A2 1
31 *9:14 *9:13 1.059821
32 *9:15 *9:14 0.5
33 *9:13 *90:A2 1
34 *9:28 *9:27 1.628572
35 *9:12 *9:11 0.2714286
36 *9:29 *9:28 0.2714286

*END

*D_NET *10 3.29833 //LENGTH 34.653 LUMPCC 0 DR

*CONN
*P *10 I *L 0 *C 20.696 0.258
*I *108:A1 I *L 0.559408 *C 15.376 9.600
*I *50:A1 I *L 0.559408 *C 13.400 9.600
*I *65:A2 I *L 0.557409 *C 9.326 4.457
*I *114:A2 I *L 0.526872 *C 15.680 14.768
*I *97:A2 I *L 0.557409 *C 15.832 16.288
*N *10:6 *C 15.832 16.274
*N *10:7 *C 15.680 14.782
*N *10:8 *C 15.680 15.072
*N *10:9 *C 15.832 15.072
*N *10:10 *C 10.649 4.432
*N *10:11 *C 10.664 4.446
*N *10:12 *C 10.664 8.979
*N *10:13 *C 10.678 8.992
*N *10:14 *C 13.400 9.587
*N *10:15 *C 13.400 9.005
*N *10:16 *C 13.400 8.992
*N *10:17 *C 15.376 9.587