*SPEF "1481-1998"
*DESIGN "shifter"
*DATE "Mon Jun  2 09:42:00 2025"
*VENDOR "Synopsys, Inc."
*PROGRAM "icc2 /home/synopsys_install/icc2/W-2024.09/linux64/nwtn/bin/icc2_exec"
*VERSION "W-2024.09 Aug 25, 2024"
*DESIGN_FLOW "ICC2 SPEF DR"
*DIVIDER /
*DELIMITER :
*BUS_DELIMITER [ ]
*T_UNIT 1 NS
*C_UNIT 1 FF
*R_UNIT 1 OHM
*L_UNIT 1 HENRY

// XY_UNIT 1 UM
// PARASITIC_TECH p1 at 125.000 degree

*NAME_MAP
*1 Clock
*2 Reset
*3 Direction
*4 Shift_Amount[2]
*5 Shift_Amount[1]
*6 Shift_Amount[0]
*7 Data_In[7]
*8 Data_In[6]
*9 Data_In[5]
*10 Data_In[4]
*11 Data_In[3]
*12 Data_In[2]
*13 Data_In[1]
*14 Data_In[0]
*15 Data_Out[7]
*16 Data_Out[6]
*17 Data_Out[5]
*18 Data_Out[4]
*19 Data_Out[3]
*20 Data_Out[2]
*21 Data_Out[1]
*22 Data_Out[0]
*23 VDD
*24 VSS
*25 Data_Out_reg[7]
*26 Data_Out_reg[6]
*27 Data_Out_reg[5]
*28 Data_Out_reg[4]
*29 Data_Out_reg[3]
*30 Data_Out_reg[2]
*31 Data_Out_reg[1]
*32 Data_Out_reg[0]
*33 HFSINV_240_0
*34 HFSINV_367_1
*35 HFSINV_748_2
*36 HFSINV_1127_3
*37 U127
*38 HFSINV_1381_4
*39 ctosc_drc_inst_340
*40 ctosc_drc_inst_431
*41 ctmTdsLR_1_434
*42 U132
*43 U133
*44 U134
*45 U135
*46 U136
*47 U137
*48 U138
*49 U139
*50 U140
*51 ctmTdsLR_2_435
*52 ctmTdsLR_1_438
*53 ctmTdsLR_2_439
*54 U163
*55 U164
*56 U165
*57 U166
*58 U167
*59 U168
*60 U169
*61 U170
*62 U171
*63 U172
*64 U173
*65 U174
*66 U175
*67 U176
*68 U177
*69 U178
*70 U179
*71 U180
*72 U181
*73 U182
*74 U183
*75 U184
*76 U186
*77 U187
*78 U188
*79 U189
*80 U190
*81 U191
*82 U192
*83 U193
*84 U194
*85 U195
*86 U196
*87 U197
*88 U198
*89 U200
*90 U201
*91 U202
*92 U203
*93 U204
*94 U205
*95 U206
*96 U207
*97 U208
*98 U209
*99 U210
*100 U211
*101 U212
*102 U213
*103 U214
*104 U215
*105 U216
*106 U217
*107 U218
*108 U219
*109 U220
*110 U221
*111 U222
*112 U223
*113 U224
*114 U225
*115 U226
*116 U227
*117 U228
*118 U229
*119 U230
*120 U231
*121 U232
*122 U233
*123 U234
*124 U235
*125 U236
*126 U237
*127 U238
*128 U239
*129 U240
*130 U241
*131 U242
*132 U243
*133 U244
*134 U245
*135 N21
*136 N22
*137 N23
*138 N24
*139 N25
*140 N26
*141 N27
*142 N28
*143 HFSNET_0
*144 HFSNET_1
*145 HFSNET_2
*146 HFSNET_3
*147 HFSNET_4
*148 ctosc_drc_0
*149 ctosc_drc_1
*150 tmp_net2
*151 tmp_net3
*152 n139
*153 n140
*154 n141
*155 n142
*156 n143
*157 n144
*158 n145
*159 n146
*160 n147
*161 n148
*162 n149
*163 n150
*164 n151
*165 n152
*166 n153
*167 n154
*168 n155
*169 n156
*170 n157
*171 n158
*172 n159
*173 n160
*174 n161
*175 n162
*176 n163
*177 n164
*178 n165
*179 n166
*180 n167
*181 n168
*182 n169
*183 n170
*184 n171
*185 n172
*186 n173
*187 n174
*188 n175
*189 n176
*190 n177
*191 n178
*192 n179
*193 n180
*194 n181
*195 n182
*196 n183
*197 n184
*198 n185
*199 n186
*200 n187
*201 n188
*202 n189
*203 n190
*204 n191
*205 n192
*206 n193
*207 n194
*208 n195
*209 n196
*210 n197
*211 n198
*212 n199
*213 n200
*214 n201
*215 n202
*216 n203
*217 n204
*218 n205
*219 n206
*220 n207
*221 n208
*222 n209
*223 n210
*224 n211
*225 n212
*226 n213
*227 n214
*228 n215
*229 n216
*230 n217
*231 n220
*232 n221
*233 n222
*234 n223
*235 n225
*236 n226

*PORTS

*1 I *C 13.856 0.143
*2 I *C 14.464 0.143
*3 I *C 23.888 0.143
*4 I *C 28.296 0.143
*5 I *C 28.600 0.143
*6 I *C 22.064 0.143
*7 I *C 28.904 0.143
*8 I *C 21.456 0.143
*9 I *C 14.160 0.143
*10 I *C 15.376 0.143
*11 I *C 19.480 0.143
*12 I *C 12.488 0.143
*13 I *C 11.424 0.143
*14 I *C 21.760 0.143
*15 O *C 12.032 0.143
*16 O *C 27.992 0.143
*17 O *C 29.360 0.143
*18 O *C 11.424 0.143
*19 O *C 29.208 0.143
*20 O *C 28.752 0.143
*21 O *C 12.032 0.143
*22 O *C 27.080 0.143
*23 I *C 15.680 10.360
*24 I *C 15.680 10.360

*D_NET *1 0.7907315 //LENGTH 8.533 LUMPCC 0 DR

*CONN
*P *1 I *L 0 *C 13.856 0.258
*I *40:A I *L 2.117502 *C 15.984 6.256
*N *1:2 *C 15.984 6.074
*N *1:3 *C 15.984 6.244
*N *1:4 *C 15.971 6.256
*N *1:5 *C 13.870 6.256
*N *1:6 *C 13.856 6.243

*CAP
0 *1 0.2918929
1 *40:A 0.001
2 *1:2 0.01446333
3 *1:3 0.008286211
4 *1:4 0.09278423
5 *1:5 0.09278423
6 *1:6 0.2895206

*RES
0 *1 *1:6 10.68661
1 *1:3 *40:A 1
2 *1:3 *1:2 0.2825
3 *1:4 *1:3 0.5
4 *1:6 *1:5 0.5
5 *1:5 *1:4 3.751786

*END

*D_NET *2 0.3841452 //LENGTH 4.170 LUMPCC 0 DR

*CONN
*P *2 I *L 0 *C 14.464 0.258
*I *33:A I *L 2.81074 *C 13.826 2.912
*N *2:2 *C 13.567 2.912
*N *2:3 *C 13.552 2.899
*N *2:4 *C 13.552 2.317
*N *2:5 *C 13.566 2.304
*N *2:6 *C 14.450 2.304
*N *2:7 *C 14.464 2.291

*CAP
0 *2 0.1021209
1 *33:A 0.02195513
2 *2:2 0.01987973
3 *2:3 0.03294841
4 *2:4 0.0326516
5 *2:5 0.03742034
6 *2:6 0.03742034
7 *2:7 0.09974872

*RES
0 *2 *2:7 3.629464
1 *2:2 *33:A 0.518
2 *2:3 *2:2 1
3 *2:4 *2:3 1.0375
4 *2:5 *2:4 0.5
5 *2:7 *2:6 0.5
6 *2:6 *2:5 1.580357

*END

*D_NET *3 3.566422 //LENGTH 39.159 LUMPCC 0 DR

*CONN
*P *3 I *L 0 *C 23.888 0.258
*I *69:A1 I *L 0.616969 *C 20.848 9.448
*I *124:A1 I *L 0.546332 *C 19.328 11.424
*I *122:A1 I *L 0.559408 *C 19.480 14.464
*I *116:A1 I *L 0.559408 *C 13.248 9.600
*I *71:A1 I *L 0.559408 *C 11.120 7.776
*I *37:A1 I *L 0.559408 *C 12.336 7.776
*I *34:A I *L 2.81074 *C 27.536 6.256
*N *3:8 *C 27.536 6.074
*N *3:9 *C 27.536 6.244
*N *3:10 *C 27.523 6.256
*N *3:11 *C 12.336 7.790
*N *3:12 *C 12.336 8.384
*N *3:13 *C 12.184 8.384
*N *3:14 *C 11.120 7.790
*N *3:15 *C 11.120 8.675
*N *3:16 *C 11.133 8.688
*N *3:17 *C 12.171 8.688
*N *3:18 *C 12.184 8.688
*N *3:19 *C 12.184 10.194
*N *3:20 *C 12.197 10.208
*N *3:21 *C 13.248 9.614
*N *3:22 *C 13.248 10.194
*N *3:23 *C 13.248 10.209
*N *3:24 *C 13.248 10.512
*N *3:25 *C 19.480 14.450
*N *3:26 *C 19.329 11.424
*N *3:27 *C 19.480 11.424
*N *3:28 *C 19.480 10.526
*N *3:29 *C 19.480 10.512
*N *3:30 *C 20.835 10.512
*N *3:31 *C 20.848 10.498
*N *3:32 *C 20.848 9.448
*N *3:33 *C 20.848 9.005
*N *3:34 *C 20.861 8.992
*N *3:35 *C 26.003 8.992
*N *3:36 *C 26.016 8.979
*N *3:37 *C 26.016 6.270
*N *3:38 *C 26.016 6.256
*N *3:39 *C 26.016 5.952
*N *3:40 *C 23.902 5.952
*N *3:41 *C 23.888 5.939

*CAP
0 *3 0.215689
1 *69:A1 0.001
2 *124:A1 0.001
3 *122:A1 0.001
4 *116:A1 0.001
5 *71:A1 0.001
6 *37:A1 0.001
7 *34:A 0.001
8 *3:8 0.012763
9 *3:9 0.00658588
10 *3:10 0.05948885
11 *3:11 0.03934848
12 *3:12 0.05276461
13 *3:13 0.03019953
14 *3:14 0.04739621
15 *3:15 0.04882889
16 *3:16 0.05230891
17 *3:17 0.05230891
18 *3:18 0.1267008
19 *3:19 0.1061125
20 *3:20 0.05565964
21 *3:21 0.03597082
22 *3:22 0.0374035
23 *3:23 0.07049827
24 *3:24 0.3346332
25 *3:25 0.1274999
26 *3:26 0.004960502
27 *3:27 0.1856674
28 *3:28 0.04322497
29 *3:29 0.3941074
30 *3:30 0.07431278
31 *3:31 0.05636393
32 *3:32 0.08097586
33 *3:33 0.02367239
34 *3:34 0.2125691
35 *3:35 0.2125691
36 *3:36 0.1278259
37 *3:37 0.1278259
38 *3:38 0.07142242
39 *3:39 0.1163758
40 *3:40 0.1020705
41 *3:41 0.2133174

*RES
0 *3 *3:41 10.14375
1 *3:9 *34:A 1
2 *3:9 *3:8 0.2825
3 *3:10 *3:9 0.5
4 *3:40 *3:39 3.775893
5 *3:41 *3:40 0.5
6 *3:32 *69:A1 1
7 *3:32 *3:31 1.875893
8 *3:37 *3:36 4.837501
9 *3:38 *3:37 0.5
10 *3:38 *3:10 2.690179
11 *3:36 *3:35 0.5
12 *3:35 *3:34 9.180358
13 *3:33 *3:32 0.7901786
14 *3:34 *3:33 0.5
15 *3:31 *3:30 0.5
16 *3:30 *3:29 2.41875
17 *3:25 *122:A1 1
18 *3:28 *3:27 1.604464
19 *3:29 *3:28 0.5
20 *3:29 *3:24 11.12857
21 *3:26 *124:A1 1
22 *3:22 *3:21 1.0375
23 *3:23 *3:22 0.5
24 *3:23 *3:20 1.875893
25 *3:21 *116:A1 1
26 *3:11 *37:A1 1
27 *3:19 *3:18 2.690179
28 *3:20 *3:19 0.5
29 *3:18 *3:17 0.5
30 *3:18 *3:13 0.5428572
31 *3:17 *3:16 1.851786
32 *3:15 *3:14 1.580357
33 *3:16 *3:15 0.5
34 *3:14 *71:A1 1
35 *3:13 *3:12 0.2714286
36 *3:12 *3:11 1.061607
37 *3:27 *3:26 0.2696429
38 *3:27 *3:25 5.404464
39 *3:24 *3:23 0.5410715
40 *3:39 *3:38 0.5428572

*END

*D_NET *4 3.816701 //LENGTH 41.594 LUMPCC 0 DR

*CONN
*P *4 I *L 0 *C 28.296 0.258
*I *35:A I *L 2.81074 *C 28.904 6.256
*I *69:A2 I *L 0.557409 *C 21.000 9.600
*I *130:A1 I *L 0.559408 *C 16.440 11.120
*I *127:A1 I *L 0.616969 *C 12.792 12.792
*I *119:A1 I *L 0.616969 *C 8.992 9.448
*I *112:A1 I *L 0.559408 *C 6.256 9.600
*N *4:7 *C 10.816 10.330
*N *4:8 *C 6.256 9.614
*N *4:9 *C 6.256 10.498
*N *4:10 *C 6.270 10.512
*N *4:11 *C 8.992 9.462
*N *4:12 *C 8.992 10.498
*N *4:13 *C 8.992 10.512
*N *4:14 *C 10.803 10.512
*N *4:15 *C 10.816 10.500
*N *4:16 *C 10.830 10.512
*N *4:17 *C 12.627 10.512
*N *4:18 *C 12.640 10.526
*N *4:19 *C 12.640 11.411
*N *4:20 *C 12.652 11.424
*N *4:21 *C 12.792 12.779
*N *4:22 *C 12.792 11.438
*N *4:23 *C 12.806 11.424
*N *4:24 *C 16.896 11.424
*N *4:25 *C 16.440 10.988
*N *4:26 *C 16.440 11.107
*N *4:27 *C 16.441 11.120
*N *4:28 *C 16.896 11.121
*N *4:29 *C 16.896 11.107
*N *4:30 *C 16.896 10.222
*N *4:31 *C 16.910 10.208
*N *4:32 *C 21.000 9.614
*N *4:33 *C 21.000 10.194
*N *4:34 *C 21.000 10.208
*N *4:35 *C 28.434 10.208
*N *4:36 *C 28.448 10.194
*N *4:37 *C 28.904 6.074
*N *4:38 *C 28.904 6.244
*N *4:39 *C 28.891 6.256
*N *4:40 *C 28.462 6.256
*N *4:41 *C 28.448 6.270
*N *4:42 *C 28.296 6.256

*CAP
0 *4 0.2931808
1 *35:A 0.001
2 *69:A2 0.001
3 *130:A1 0.001
4 *127:A1 0.001
5 *119:A1 0.001
6 *112:A1 0.001
7 *4:7 0.01244057
8 *4:8 0.04119429
9 *4:9 0.04262697
10 *4:10 0.1156664
11 *4:11 0.06808241
12 *4:12 0.06951509
13 *4:13 0.2043739
14 *4:14 0.08633579
15 *4:15 0.007697756
16 *4:16 0.07808888
17 *4:17 0.07808888
18 *4:18 0.04189756
19 *4:19 0.04189704
20 *4:20 0.009512577
21 *4:21 0.09941284
22 *4:22 0.1008455
23 *4:23 0.2111146
24 *4:24 0.2156669
25 *4:25 0.01551965
26 *4:26 0.009342539
27 *4:27 0.02385163
28 *4:28 0.03791597
29 *4:29 0.05928313
30 *4:30 0.05928313
31 *4:31 0.2067726
32 *4:32 0.03498456
33 *4:33 0.03641724
34 *4:34 0.5067779
35 *4:35 0.2976331
36 *4:36 0.1721013
37 *4:37 0.01104638
38 *4:38 0.004869268
39 *4:39 0.01748455
40 *4:40 0.01748455
41 *4:41 0.1806076
42 *4:42 0.3016871

*RES
0 *4 *4:42 10.71071
1 *4:41 *4:40 0.5
2 *4:41 *4:36 7.008929
3 *4:40 *4:39 0.7660715
4 *4:38 *35:A 1
5 *4:38 *4:37 0.2825
6 *4:39 *4:38 0.5
7 *4:36 *4:35 0.5
8 *4:35 *4:34 13.27589
9 *4:33 *4:32 1.0375
10 *4:34 *4:33 0.5
11 *4:34 *4:31 7.304464
12 *4:32 *69:A2 1
13 *4:30 *4:29 1.580357
14 *4:31 *4:30 0.5
15 *4:29 *4:28 0.5
16 *4:28 *4:27 0.8125
17 *4:28 *4:24 0.5410715
18 *4:26 *130:A1 1
19 *4:26 *4:25 0.1991667
20 *4:27 *4:26 0.5
21 *4:22 *4:21 2.394643
22 *4:23 *4:22 0.5
23 *4:23 *4:20 0.255
24 *4:21 *127:A1 1
25 *4:20 *4:19 0.5
26 *4:19 *4:18 1.580357
27 *4:18 *4:17 0.5
28 *4:17 *4:16 3.208929
29 *4:15 *4:14 0.5
30 *4:15 *4:7 0.2825
31 *4:16 *4:15 0.5
32 *4:14 *4:13 3.233036
33 *4:12 *4:11 1.851786
34 *4:13 *4:12 0.5
35 *4:13 *4:10 4.861607
36 *4:11 *119:A1 1
37 *4:9 *4:8 1.580357
38 *4:10 *4:9 0.5
39 *4:8 *112:A1 1
40 *4:42 *4:41 0.2714286
41 *4:24 *4:23 7.304464

*END

*D_NET *5 5.842865 //LENGTH 59.350 LUMPCC 0 DR

*CONN
*P *5 I *L 0 *C 28.600 0.258
*I *38:A I *L 2.81074 *C 27.840 2.912
*I *61:A1 I *L 0.616969 *C 20.088 4.584
*I *129:A2 I *L 0.526872 *C 20.988 5.979
*I *123:A1 I *L 0.559408 *C 17.504 7.776
*I *83:A1 I *L 0.616969 *C 16.136 17.960
*I *90:A1 I *L 0.559408 *C 17.200 16.288
*I *115:A2 I *L 0.526872 *C 14.464 9.296
*I *121:A2 I *L 0.526872 *C 13.552 8.080
*I *100:A1 I *L 0.546332 *C 10.664 5.992
*I *72:A1 I *L 0.616969 *C 8.232 2.760
*I *94:A1 I *L 0.616969 *C 8.384 7.928
*I *85:A1 I *L 0.616969 *C 5.192 4.584
*I *76:A1 I *L 0.559408 *C 6.256 4.432
*N *5:14 *C 6.256 4.446
*N *5:15 *C 5.192 4.584
*N *5:16 *C 5.192 4.724
*N *5:17 *C 5.206 4.736
*N *5:18 *C 6.243 4.736
*N *5:19 *C 6.256 4.736
*N *5:20 *C 6.560 4.736
*N *5:21 *C 6.560 5.939
*N *5:22 *C 6.574 5.952
*N *5:23 *C 8.384 7.915
*N *5:24 *C 8.384 5.952
*N *5:25 *C 8.232 2.774
*N *5:26 *C 8.232 5.952
*N *5:27 *C 8.232 5.952
*N *5:28 *C 10.664 6.104
*N *5:29 *C 10.071 6.104
*N *5:30 *C 10.056 6.091
*N *5:31 *C 10.056 5.952
*N *5:32 *C 10.056 5.952
*N *5:33 *C 12.627 5.952
*N *5:34 *C 12.640 5.966
*N *5:35 *C 12.640 8.066
*N *5:36 *C 12.654 8.080
*N *5:37 *C 13.552 7.898
*N *5:38 *C 13.552 8.068
*N *5:39 *C 13.552 8.080
*N *5:40 *C 14.464 9.283
*N *5:41 *C 14.464 8.688
*N *5:42 *C 14.616 8.688
*N *5:43 *C 14.616 8.094
*N *5:44 *C 14.616 8.080
*N *5:45 *C 16.106 11.120
*N *5:46 *C 17.200 16.274
*N *5:47 *C 17.200 15.985
*N *5:48 *C 17.199 15.984
*N *5:49 *C 16.136 17.947
*N *5:50 *C 16.136 15.984
*N *5:51 *C 16.287 15.984
*N *5:52 *C 16.302 15.984
*N *5:53 *C 16.288 15.971
*N *5:54 *C 16.288 11.133
*N *5:55 *C 16.276 11.120
*N *5:56 *C 16.288 11.107
*N *5:57 *C 16.288 8.094
*N *5:58 *C 16.288 8.080
*N *5:59 *C 17.504 8.080
*N *5:60 *C 17.504 7.777
*N *5:61 *C 17.504 7.763
*N *5:62 *C 17.504 6.574
*N *5:63 *C 17.518 6.560
*N *5:64 *C 20.227 6.560
*N *5:65 *C 20.240 6.546
*N *5:66 *C 20.861 5.952
*N *5:67 *C 20.848 5.939
*N *5:68 *C 20.848 5.357
*N *5:69 *C 20.835 5.344
*N *5:70 *C 20.254 5.344
*N *5:71 *C 20.240 5.344
*N *5:72 *C 20.088 4.571
*N *5:73 *C 20.088 4.432
*N *5:74 *C 20.240 4.446
*N *5:75 *C 20.254 4.432
*N *5:76 *C 27.675 4.432
*N *5:77 *C 27.688 4.418
*N *5:78 *C 27.688 3.216
*N *5:79 *C 27.840 3.216
*N *5:80 *C 27.840 2.912
*N *5:81 *C 27.840 2.014
*N *5:82 *C 27.854 2.000
*N *5:83 *C 28.587 2.000
*N *5:84 *C 28.600 1.987

*CAP
0 *5 0.08842792
1 *38:A 0.001
2 *61:A1 0.001
3 *129:A2 0.01312994
4 *123:A1 0.001
5 *83:A1 0.001
6 *90:A1 0.001
7 *115:A2 0.001
8 *121:A2 0.001
9 *100:A1 0.01550367
10 *72:A1 0.001
11 *94:A1 0.001
12 *85:A1 0.001
13 *76:A1 0.001
14 *5:14 0.02284311
15 *5:15 0.01301769
16 *5:16 0.01445036
17 *5:17 0.04939768
18 *5:18 0.04939768
19 *5:19 0.03990138
20 *5:20 0.09416252
21 *5:21 0.07616471
22 *5:22 0.08136195
23 *5:23 0.1273601
24 *5:24 0.1405523
25 *5:25 0.1812639
26 *5:26 0.1920839
27 *5:27 0.1724486
28 *5:28 0.06284139
29 *5:29 0.04526233
30 *5:30 0.01539472
31 *5:31 0.0150979
32 *5:32 0.2208643
33 *5:33 0.1297776
34 *5:34 0.1235339
35 *5:35 0.1235339
36 *5:36 0.04201543
37 *5:37 0.01900701
38 *5:38 0.01282989
39 *5:39 0.09043913
40 *5:40 0.04770441
41 *5:41 0.06053606
42 *5:42 0.06246218
43 *5:43 0.05106321
44 *5:44 0.1287787
45 *5:45 0.01400358
46 *5:46 0.02584647
47 *5:47 0.02727914
48 *5:48 0.04572334
49 *5:49 0.1060196
50 *5:50 0.1188212
51 *5:51 0.00662449
52 *5:52 0.04335166
53 *5:53 0.2032674
54 *5:54 0.2032674
55 *5:55 0.009259693
56 *5:56 0.1639027
57 *5:57 0.1639027
58 *5:58 0.1388196
59 *5:59 0.07198573
60 *5:60 0.01114887
61 *5:61 0.0631668
62 *5:62 0.0669717
63 *5:63 0.1115482
64 *5:64 0.1115482
65 *5:65 0.0632992
66 *5:66 0.01105454
67 *5:67 0.03649857
68 *5:68 0.03620175
69 *5:69 0.02952841
70 *5:70 0.02952841
71 *5:71 0.1103042
72 *5:72 0.008460022
73 *5:73 0.02187032
74 *5:74 0.05423817
75 *5:75 0.3294988
76 *5:76 0.3294988
77 *5:77 0.05904906
78 *5:78 0.06958724
79 *5:79 0.02950626
80 *5:80 0.07783072
81 *5:81 0.05792309
82 *5:82 0.03143162
83 *5:83 0.03143162
84 *5:84 0.0860557

*RES
0 *5 *5:84 3.086607
1 *5:80 *38:A 1
2 *5:80 *5:79 0.5428572
3 *5:81 *5:80 1.604464
4 *5:82 *5:81 0.5
5 *5:84 *5:83 0.5
6 *5:83 *5:82 1.308929
7 *5:71 *5:70 0.5
8 *5:71 *5:65 2.147322
9 *5:70 *5:69 1.0375
10 *5:68 *5:67 1.0375
11 *5:69 *5:68 0.5
12 *5:66 *129:A2 0.2116667
13 *5:67 *5:66 1
14 *5:77 *5:76 0.5
15 *5:76 *5:75 13.25179
16 *5:74 *5:73 0.2714286
17 *5:74 *5:71 1.604464
18 *5:75 *5:74 0.5
19 *5:72 *61:A1 1
20 *5:61 *123:A1 1
21 *5:61 *5:60 0.5
22 *5:65 *5:64 0.5
23 *5:64 *5:63 4.837501
24 *5:62 *5:61 2.123214
25 *5:63 *5:62 0.5
26 *5:47 *5:46 0.5169644
27 *5:48 *5:47 0.5
28 *5:46 *90:A1 1
29 *5:60 *5:59 0.5410715
30 *5:51 *5:50 0.2696429
31 *5:52 *5:51 0.5
32 *5:52 *5:48 1.602679
33 *5:49 *83:A1 1
34 *5:53 *5:52 0.5
35 *5:55 *5:54 0.5
36 *5:55 *5:45 0.2825
37 *5:54 *5:53 8.637501
38 *5:56 *5:55 0.5
39 *5:57 *5:56 5.380358
40 *5:58 *5:57 0.5
41 *5:58 *5:44 2.985714
42 *5:43 *5:42 1.061607
43 *5:44 *5:43 0.5
44 *5:44 *5:39 1.9
45 *5:40 *115:A2 1
46 *5:38 *121:A2 1
47 *5:38 *5:37 0.2825
48 *5:39 *5:38 0.5
49 *5:39 *5:36 1.604464
50 *5:35 *5:34 3.751786
51 *5:36 *5:35 0.5
52 *5:34 *5:33 0.5
53 *5:33 *5:32 4.590179
54 *5:31 *5:30 0.2325
55 *5:32 *5:31 0.5
56 *5:32 *5:27 3.257143
57 *5:29 *5:28 1.186
58 *5:30 *5:29 1
59 *5:23 *94:A1 1
60 *5:26 *5:25 5.675892
61 *5:26 *5:24 0.2714286
62 *5:27 *5:26 0.5
63 *5:27 *5:22 2.961607
64 *5:25 *72:A1 1
65 *5:21 *5:20 2.147322
66 *5:22 *5:21 0.5
67 *5:14 *76:A1 1
68 *5:19 *5:18 0.5
69 *5:19 *5:14 0.5187501
70 *5:18 *5:17 1.851786
71 *5:16 *5:15 0.2325
72 *5:17 *5:16 0.5
73 *5:15 *85:A1 1
74 *5:28 *100:A1 0.3540001
75 *5:20 *5:19 0.5428572
76 *5:24 *5:23 3.504464
77 *5:41 *5:40 1.061607
78 *5:42 *5:41 0.2714286
79 *5:50 *5:49 3.504464
80 *5:73 *5:72 0.2473214
81 *5:78 *5:77 2.147322
82 *5:79 *5:78 0.2714286
83 *5:59 *5:58 2.171429

*END

*D_NET *6 4.552379 //LENGTH 51.910 LUMPCC 0 DR

*CONN
*P *6 I *L 0 *C 22.064 0.258
*I *37:A2 I *L 0.526872 *C 12.184 8.080
*I *117:A1 I *L 0.559408 *C 11.880 11.120
*I *78:A1 I *L 0.559408 *C 12.640 16.288
*I *89:A2 I *L 0.526872 *C 14.464 18.112
*I *80:A1 I *L 0.616969 *C 17.048 17.960
*I *131:A2 I *L 0.526872 *C 18.264 18.112
*I *125:A1 I *L 0.559408 *C 13.096 14.464
*I *111:A1 I *L 0.559408 *C 5.496 7.776
*I *56:A1 I *L 0.616969 *C 4.432 7.928
*I *102:A1 I *L 0.616969 *C 3.216 7.928
*I *63:A1 I *L 0.616969 *C 2.608 6.104
*I *36:A I *L 2.81074 *C 16.592 7.776
*N *6:13 *C 16.591 7.776
*N *6:14 *C 2.608 6.118
*N *6:15 *C 2.608 7.763
*N *6:16 *C 2.622 7.776
*N *6:17 *C 3.216 7.916
*N *6:18 *C 3.216 7.776
*N *6:19 *C 3.216 7.776
*N *6:20 *C 4.432 7.916
*N *6:21 *C 4.432 7.776
*N *6:22 *C 4.432 7.776
*N *6:23 *C 5.496 7.594
*N *6:24 *C 5.496 7.764
*N *6:25 *C 5.496 7.776
*N *6:26 *C 13.096 14.282
*N *6:27 *C 13.096 14.452
*N *6:28 *C 13.083 14.464
*N *6:29 *C 12.944 14.464
*N *6:30 *C 12.944 14.768
*N *6:31 *C 12.792 14.768
*N *6:32 *C 18.264 17.930
*N *6:33 *C 18.264 18.100
*N *6:34 *C 18.251 18.112
*N *6:35 *C 17.048 17.960
*N *6:36 *C 17.048 18.100
*N *6:37 *C 17.048 18.112
*N *6:38 *C 14.464 17.930
*N *6:39 *C 14.464 18.100
*N *6:40 *C 14.464 18.112
*N *6:41 *C 14.174 18.112
*N *6:42 *C 14.160 18.099
*N *6:43 *C 14.160 15.086
*N *6:44 *C 14.147 15.072
*N *6:45 *C 12.641 16.288
*N *6:46 *C 12.792 16.288
*N *6:47 *C 12.792 15.086
*N *6:48 *C 12.792 15.071
*N *6:49 *C 12.046 15.072
*N *6:50 *C 12.032 15.059
*N *6:51 *C 11.880 10.938
*N *6:52 *C 11.880 11.107
*N *6:53 *C 11.880 11.120
*N *6:54 *C 12.020 11.120
*N *6:55 *C 12.032 11.120
*N *6:56 *C 12.032 7.790
*N *6:57 *C 12.184 8.066
*N *6:58 *C 12.184 7.776
*N *6:59 *C 12.033 7.776
*N *6:60 *C 12.032 7.776
*N *6:61 *C 16.427 7.776
*N *6:62 *C 16.440 7.776
*N *6:63 *C 16.440 0.797
*N *6:64 *C 16.455 0.784
*N *6:65 *C 22.049 0.784
*N *6:66 *C 22.064 0.771

*CAP
0 *6 0.02571612
1 *37:A2 0.001
2 *117:A1 0.001
3 *78:A1 0.001
4 *89:A2 0.001
5 *80:A1 0.001
6 *131:A2 0.001
7 *125:A1 0.001
8 *111:A1 0.001
9 *56:A1 0.001
10 *102:A1 0.001
11 *63:A1 0.001
12 *36:A 0.001
13 *6:13 0.005118152
14 *6:14 0.07174432
15 *6:15 0.07317699
16 *6:16 0.02021364
17 *6:17 0.007725441
18 *6:18 0.009158119
19 *6:19 0.06361223
20 *6:20 0.008702029
21 *6:21 0.01013471
22 *6:22 0.08407417
23 *6:23 0.02314913
24 *6:24 0.01697201
25 *6:25 0.3156273
26 *6:26 0.01748988
27 *6:27 0.01131277
28 *6:28 0.007502016
29 *6:29 0.02503041
30 *6:30 0.02457382
31 *6:31 0.02448498
32 *6:32 0.01383114
33 *6:33 0.007654026
34 *6:34 0.04462557
35 *6:35 0.008643136
36 *6:36 0.01007582
37 *6:37 0.1382342
38 *6:38 0.01293916
39 *6:39 0.006762044
40 *6:40 0.1050243
41 *6:41 0.01141568
42 *6:42 0.1511729
43 *6:43 0.1511729
44 *6:44 0.05423445
45 *6:45 0.004734628
46 *6:46 0.08798051
47 *6:47 0.07706877
48 *6:48 0.1032085
49 *6:49 0.03153501
50 *6:50 0.1491183
51 *6:51 0.02313596
52 *6:52 0.01695884
53 *6:53 0.01145759
54 *6:54 0.01145814
55 *6:55 0.2970155
56 *6:56 0.1455255
57 *6:57 0.01773796
58 *6:58 0.03065884
59 *6:59 0.00674376
60 *6:60 0.4785772
61 *6:61 0.2059971
62 *6:62 0.3424681
63 *6:63 0.3338418
64 *6:64 0.2901064
65 *6:65 0.2901064
66 *6:66 0.02364072

*RES
0 *6 *6:66 0.9151786
1 *6:33 *131:A2 1
2 *6:33 *6:32 0.2825
3 *6:34 *6:33 0.5
4 *6:36 *6:35 0.2325
5 *6:37 *6:36 0.5
6 *6:37 *6:34 2.147321
7 *6:35 *80:A1 1
8 *6:13 *36:A 1
9 *6:64 *6:63 1
10 *6:63 *6:62 12.46161
11 *6:65 *6:64 11.188
12 *6:66 *6:65 1
13 *6:39 *89:A2 1
14 *6:39 *6:38 0.2825
15 *6:40 *6:39 0.5
16 *6:40 *6:37 4.614285
17 *6:42 *6:41 0.5
18 *6:41 *6:40 0.5187501
19 *6:43 *6:42 5.380358
20 *6:44 *6:43 0.5
21 *6:27 *125:A1 1
22 *6:27 *6:26 0.2825
23 *6:28 *6:27 0.5
24 *6:47 *6:46 2.147322
25 *6:48 *6:47 0.5
26 *6:48 *6:44 2.41875
27 *6:48 *6:31 0.5410715
28 *6:45 *78:A1 1
29 *6:62 *6:61 0.5
30 *6:62 *6:13 0.2696429
31 *6:61 *6:60 7.847322
32 *6:49 *6:48 1.333036
33 *6:50 *6:49 0.5
34 *6:59 *6:58 0.2696429
35 *6:60 *6:59 0.5
36 *6:60 *6:56 0.5
37 *6:60 *6:25 11.67143
38 *6:57 *37:A2 1
39 *6:56 *6:55 5.947322
40 *6:54 *6:53 0.2325
41 *6:55 *6:54 0.5
42 *6:55 *6:50 7.033037
43 *6:52 *117:A1 1
44 *6:52 *6:51 0.2825
45 *6:53 *6:52 0.5
46 *6:24 *111:A1 1
47 *6:24 *6:23 0.2825
48 *6:25 *6:24 0.5
49 *6:25 *6:22 1.9
50 *6:21 *6:20 0.2325
51 *6:22 *6:21 0.5
52 *6:22 *6:19 2.171429
53 *6:20 *56:A1 1
54 *6:18 *6:17 0.2325
55 *6:19 *6:18 0.5
56 *6:19 *6:16 1.061607
57 *6:17 *102:A1 1
58 *6:15 *6:14 2.9375
59 *6:16 *6:15 0.5
60 *6:14 *63:A1 1
61 *6:58 *6:57 0.5187501
62 *6:46 *6:45 0.2696429
63 *6:31 *6:30 0.2714286
64 *6:30 *6:29 0.5428572
65 *6:29 *6:28 0.2473215

*END

*D_NET *7 2.445608 //LENGTH 31.115 LUMPCC 0 DR

*CONN
*P *7 I *L 0 *C 28.904 0.258
*I *70:A1 I *L 0.546332 *C 19.176 9.296
*I *132:A1 I *L 0.559408 *C 18.264 14.464
*I *90:A2 I *L 0.526872 *C 17.352 15.984
*I *80:A2 I *L 0.557409 *C 16.896 17.808
*N *7:5 *C 16.896 17.676
*N *7:6 *C 16.896 17.796
*N *7:7 *C 16.910 17.808
*N *7:8 *C 17.338 17.808
*N *7:9 *C 17.352 17.794
*N *7:10 *C 17.352 15.998
*N *7:11 *C 17.352 15.983
*N *7:12 *C 17.352 15.680
*N *7:13 *C 18.251 15.680
*N *7:14 *C 18.264 15.667
*N *7:15 *C 18.264 14.478
*N *7:16 *C 18.277 14.464
*N *7:17 *C 19.315 14.464
*N *7:18 *C 19.328 14.450
*N *7:19 *C 19.176 9.114
*N *7:20 *C 19.176 9.284
*N *7:21 *C 19.176 9.296
*N *7:22 *C 19.316 9.296
*N *7:23 *C 19.328 9.296
*N *7:24 *C 19.328 0.494
*N *7:25 *C 19.341 0.480
*N *7:26 *C 28.891 0.480
*N *7:27 *C 28.904 0.467

*CAP
0 *7 0.01567967
1 *70:A1 0.001
2 *132:A1 0.001
3 *90:A2 0.001
4 *80:A2 0.001
5 *7:5 0.01187026
6 *7:6 0.0037163
7 *7:7 0.01998066
8 *7:8 0.02195751
9 *7:9 0.09452452
10 *7:10 0.09071963
11 *7:11 0.01232833
12 *7:12 0.0575831
13 *7:13 0.04051033
14 *7:14 0.1005579
15 *7:15 0.09675303
16 *7:16 0.04441004
17 *7:17 0.04441059
18 *7:18 0.1914921
19 *7:19 0.01816517
20 *7:20 0.01198806
21 *7:21 0.009728639
22 *7:22 0.009729186
23 *7:23 0.5445726
24 *7:24 0.3507088
25 *7:25 0.3184572
26 *7:26 0.3184566
27 *7:27 0.01330745

*RES
0 *7 *7:27 0.3723215
1 *7:25 *7:24 0.5
2 *7:24 *7:23 15.71875
3 *7:27 *7:26 0.5
4 *7:26 *7:25 17.05179
5 *7:22 *7:21 0.2325
6 *7:23 *7:22 0.5
7 *7:23 *7:18 9.204465
8 *7:20 *70:A1 1
9 *7:20 *7:19 0.2825
10 *7:21 *7:20 0.5
11 *7:15 *132:A1 1
12 *7:15 *7:14 2.123214
13 *7:17 *7:16 1.851786
14 *7:18 *7:17 0.5
15 *7:16 *7:15 0.5
16 *7:10 *90:A2 1
17 *7:10 *7:9 3.208929
18 *7:14 *7:13 0.5
19 *7:13 *7:12 1.604464
20 *7:11 *7:10 0.5
21 *7:9 *7:8 0.5
22 *7:8 *7:7 0.7660715
23 *7:6 *80:A2 1
24 *7:6 *7:5 0.1991667
25 *7:7 *7:6 0.5
26 *7:12 *7:11 0.5410715

*END

*D_NET *8 2.853418 //LENGTH 31.273 LUMPCC 0 DR

*CONN
*P *8 I *L 0 *C 21.456 0.258
*I *89:A1 I *L 0.559408 *C 14.616 17.808
*I *126:A1 I *L 0.559408 *C 13.856 16.288
*I *81:A1 I *L 0.616969 *C 18.264 16.136
*I *131:A1 I *L 0.559408 *C 18.416 17.808
*I *54:A1 I *L 0.616969 *C 16.744 4.584
*N *8:6 *C 16.744 4.572
*N *8:7 *C 16.410 12.032
*N *8:8 *C 18.416 17.794
*N *8:9 *C 18.416 16.592
*N *8:10 *C 18.264 16.149
*N *8:11 *C 18.264 16.592
*N *8:12 *C 18.251 16.592
*N *8:13 *C 13.856 16.302
*N *8:14 *C 13.856 16.883
*N *8:15 *C 13.870 16.896
*N *8:16 *C 14.615 17.808
*N *8:17 *C 14.464 17.808
*N *8:18 *C 14.464 16.910
*N *8:19 *C 14.464 16.896
*N *8:20 *C 16.592 16.896
*N *8:21 *C 16.592 16.592
*N *8:22 *C 16.592 16.579
*N *8:23 *C 16.592 12.046
*N *8:24 *C 16.579 12.032
*N *8:25 *C 16.592 12.019
*N *8:26 *C 16.592 4.446
*N *8:27 *C 16.592 4.432
*N *8:28 *C 16.732 4.432
*N *8:29 *C 16.744 4.431
*N *8:30 *C 16.744 1.102
*N *8:31 *C 16.758 1.088
*N *8:32 *C 21.443 1.088
*N *8:33 *C 21.456 1.075

*CAP
0 *8 0.031891
1 *89:A1 0.001
2 *126:A1 0.001
3 *81:A1 0.001
4 *131:A1 0.001
5 *54:A1 0.001
6 *8:6 0.01267999
7 *8:7 0.01450043
8 *8:8 0.06457531
9 *8:9 0.07727844
10 *8:10 0.04075325
11 *8:11 0.05108416
12 *8:12 0.07866307
13 *8:13 0.03803039
14 *8:14 0.03946307
15 *8:15 0.02805178
16 *8:16 0.004615458
17 *8:17 0.05522328
18 *8:18 0.04443071
19 *8:19 0.1382134
20 *8:20 0.1231795
21 *8:21 0.09168094
22 *8:22 0.2512104
23 *8:23 0.2512104
24 *8:24 0.00975654
25 *8:25 0.3150762
26 *8:26 0.3150762
27 *8:27 0.01063997
28 *8:28 0.01063943
29 *8:29 0.1975286
30 *8:30 0.1810437
31 *8:31 0.1712013
32 *8:32 0.1712019
33 *8:33 0.02951932

*RES
0 *8 *8:33 1.458036
1 *8:8 *131:A1 1
2 *8:10 *81:A1 1
3 *8:6 *54:A1 1
4 *8:30 *8:29 5.945536
5 *8:31 *8:30 0.5
6 *8:32 *8:31 8.366073
7 *8:33 *8:32 0.5
8 *8:11 *8:10 0.7901786
9 *8:11 *8:9 0.2714286
10 *8:12 *8:11 0.5
11 *8:29 *8:28 0.5
12 *8:29 *8:6 0.2341667
13 *8:28 *8:27 0.2325
14 *8:27 *8:26 0.5
15 *8:26 *8:25 13.52322
16 *8:24 *8:23 0.5
17 *8:24 *8:7 0.2825
18 *8:25 *8:24 0.5
19 *8:23 *8:22 8.094644
20 *8:22 *8:21 0.5
21 *8:21 *8:20 0.5428572
22 *8:21 *8:12 2.961607
23 *8:18 *8:17 1.604465
24 *8:19 *8:18 0.5
25 *8:19 *8:15 1.061607
26 *8:16 *89:A1 1
27 *8:14 *8:13 1.0375
28 *8:15 *8:14 0.5
29 *8:13 *126:A1 1
30 *8:17 *8:16 0.2696429
31 *8:9 *8:8 2.147321
32 *8:20 *8:19 3.8

*END

*D_NET *9 2.759989 //LENGTH 26.643 LUMPCC 0 DR

*CONN
*P *9 I *L 0 *C 14.160 0.258
*I *118:A1 I *L 0.559408 *C 12.032 9.600
*I *125:A2 I *L 0.526872 *C 12.944 14.768
*I *78:A2 I *L 0.526872 *C 12.805 16.011
*I *91:A1 I *L 0.559408 *C 13.248 17.808
*I *72:A2 I *L 0.557409 *C 8.384 2.912
*N *9:6 *C 8.384 2.925
*N *9:7 *C 8.384 3.203
*N *9:8 *C 8.398 3.216
*N *9:9 *C 13.248 17.794
*N *9:10 *C 13.248 15.998
*N *9:11 *C 13.233 15.984
*N *9:12 *C 12.959 15.984
*N *9:13 *C 12.944 15.971
*N *9:14 *C 12.944 14.768
*N *9:15 *C 12.944 14.174
*N *9:16 *C 12.931 14.160
*N *9:17 *C 12.046 14.160
*N *9:18 *C 12.032 14.147
*N *9:19 *C 12.032 9.614
*N *9:20 *C 12.019 9.600
*N *9:21 *C 11.425 9.600
*N *9:22 *C 11.424 9.599
*N *9:23 *C 11.424 3.230
*N *9:24 *C 11.424 3.216
*N *9:25 *C 14.147 3.216
*N *9:26 *C 14.160 3.203

*CAP
0 *9 0.1521124
1 *118:A1 0.001
2 *125:A2 0.001
3 *78:A2 0.01335456
4 *91:A1 0.001
5 *72:A2 0.001
6 *9:6 0.01725443
7 *9:7 0.01868711
8 *9:8 0.1400597
9 *9:9 0.1238267
10 *9:10 0.1255563
11 *9:11 0.02040008
12 *9:12 0.03375464
13 *9:13 0.08381541
14 *9:14 0.1232539
15 *9:15 0.03879575
16 *9:16 0.04074844
17 *9:17 0.04074844
18 *9:18 0.3027996
19 *9:19 0.2989947
20 *9:20 0.03303938
21 *9:21 0.03303993
22 *9:22 0.2777794
23 *9:23 0.2777794
24 *9:24 0.2764407
25 *9:25 0.1340082
26 *9:26 0.1497402

*RES
0 *9 *9:26 5.258035
1 *9:11 *9:10 1
2 *9:10 *9:9 3.208929
3 *9:9 *91:A1 1
4 *9:12 *78:A2 0.2575
5 *9:12 *9:11 0.5480001
6 *9:13 *9:12 1
7 *9:14 *125:A2 1
8 *9:14 *9:13 2.147322
9 *9:15 *9:14 1.061607
10 *9:16 *9:15 0.5
11 *9:18 *9:17 0.5
12 *9:17 *9:16 1.580357
13 *9:19 *118:A1 1
14 *9:19 *9:18 8.094644
15 *9:26 *9:25 0.5
16 *9:25 *9:24 4.861607
17 *9:20 *9:19 0.5
18 *9:21 *9:20 1.059821
19 *9:22 *9:21 0.5
20 *9:24 *9:23 0.5
21 *9:24 *9:8 5.404465
22 *9:23 *9:22 11.37411
23 *9:7 *9:6 0.4946429
24 *9:8 *9:7 0.5
25 *9:6 *72:A2 1

*END

*D_NET *10 3.132517 //LENGTH 29.604 LUMPCC 0 DR

*CONN
*P *10 I *L 0 *C 15.376 0.258
*I *62:A2 I *L 0.557409 *C 11.728 4.432
*I *113:A1 I *L 0.559408 *C 6.864 7.776
*I *94:A2 I *L 0.557409 *C 8.536 7.776
*I *117:A2 I *L 0.526872 *C 12.045 11.453
*I *79:A1 I *L 0.559408 *C 11.880 14.464
*N *10:6 *C 11.879 14.464
*N *10:7 *C 11.728 14.464
*N *10:8 *C 12.184 11.242
*N *10:9 *C 12.171 11.424
*N *10:10 *C 12.184 11.412
*N *10:11 *C 12.171 11.424
*N *10:12 *C 8.536 7.790
*N *10:13 *C 6.864 7.790
*N *10:14 *C 6.864 8.979
*N *10:15 *C 6.878 8.992
*N *10:16 *C 8.523 8.992
*N *10:17 *C 8.536 8.992
*N *10:18 *C 8.536 11.107
*N *10:19 *C 8.550 11.120
*N *10:20 *C 10.968 11.120
*N *10:21 *C 10.968 11.424
*N *10:22 *C 11.728 11.424
*N *10:23 *C 11.728 11.424
*N *10:24 *C 11.728 4.433
*N *10:25 *C 11.729 4.432
*N *10:26 *C 13.095 4.432
*N *10:27 *C 13.096 4.431
*N *10:28 *C 13.096 1.405
*N *10:29 *C 13.111 1.392
*N *10:30 *C 15.361 1.392
*N *10:31 *C 15.376 1.379

*CAP
0 *10 0.04519965
1 *62:A2 0.001
2 *113:A1 0.001
3 *94:A2 0.001
4 *117:A2 0.01347913
5 *79:A1 0.001
6 *10:6 0.004846859
7 *10:7 0.1959657
8 *10:8 0.01886063
9 *10:9 0.01140373
10 *10:10 0.01441301
11 *10:11 0.02030699
12 *10:12 0.0647193
13 *10:13 0.06315869
14 *10:14 0.06459137
15 *10:15 0.07679971
16 *10:16 0.07679971
17 *10:17 0.1958838
18 *10:18 0.1273596
19 *10:19 0.1018308
20 *10:20 0.1153741
21 *10:21 0.04455876
22 *10:22 0.05369468
23 *10:23 0.6351102
24 *10:24 0.4439913
25 *10:25 0.06942076
26 *10:26 0.06942076
27 *10:27 0.1544163
28 *10:28 0.1547131
29 *10:29 0.1245369
30 *10:30 0.1245369
31 *10:31 0.04312425

*RES
0 *10 *10:31 2.000893
1 *10:6 *79:A1 1
2 *10:10 *10:9 1
3 *10:10 *10:8 0.2825
4 *10:11 *10:10 0.5
5 *10:9 *117:A2 0.2116667
6 *10:23 *10:22 0.5
7 *10:23 *10:7 5.428572
8 *10:22 *10:21 1.357143
9 *10:22 *10:11 0.7901785
10 *10:24 *62:A2 1
11 *10:24 *10:23 12.48393
12 *10:25 *10:24 0.5
13 *10:27 *10:26 0.5
14 *10:26 *10:25 2.439286
15 *10:29 *10:28 1
16 *10:28 *10:27 5.402678
17 *10:30 *10:29 4.500001
18 *10:31 *10:30 1
19 *10:18 *10:17 3.775893
20 *10:19 *10:18 0.5
21 *10:12 *94:A2 1
22 *10:17 *10:16 0.5
23 *10:17 *10:12 2.147322
24 *10:16 *10:15 2.9375
25 *10:14 *10:13 2.123214
26 *10:15 *10:14 0.5
27 *10:13 *113:A1 1
28 *10:7 *10:6 0.2696429
29 *10:20 *10:19 4.31875
30 *10:21 *10:20 0.5428572

*END

*D_NET *11 2.317201 //LENGTH 23.990 LUMPCC 0 DR

*CONN
*P *11 I *L 0 *C 19.480 0.258
*I *73:A1 I *L 0.616969 *C 5.010 2.785
*I *85:A2 I *L 0.557409 *C 5.344 4.432
*I *111:A2 I *L 0.526872 *C 5.344 8.080
*I *64:A1 I *L 0.616969 *C 5.496 6.104
*N *11:5 *C 5.496 6.091
*N *11:6 *C 5.496 5.952
*N *11:7 *C 5.344 8.066
*N *11:8 *C 5.344 5.952
*N *11:9 *C 5.344 4.432
*N *11:10 *C 4.751 2.760
*N *11:11 *C 4.736 2.760
*N *11:12 *C 4.736 2.900
*N *11:13 *C 4.750 2.912
*N *11:14 *C 5.331 2.912
*N *11:15 *C 5.344 2.912
*N *11:16 *C 5.344 1.102
*N *11:17 *C 5.359 1.088
*N *11:18 *C 19.465 1.088
*N *11:19 *C 19.480 1.075

*CAP
0 *11 0.03658317
1 *73:A1 0.02161175